
     RDKit          3D

 26 25  0  0  0  0  0  0  0  0999 V2000
    3.7959    2.2392   -0.1830 C   0  0  0  0  0  0  0  0  0  0  0  0
    4.4856    1.1605    0.2113 C   0  0  0  0  0  0  0  0  0  0  0  0
    4.0572   -0.2408    0.0174 C   0  0  0  0  0  0  0  0  0  0  0  0
    4.7217   -1.1866    0.4121 O   0  0  0  0  0  0  0  0  0  0  0  0
    2.8677   -0.3180   -0.6284 O   0  0  0  0  0  0  0  0  0  0  0  0
    2.3715   -1.6401   -0.8632 C   0  0  0  0  0  0  0  0  0  0  0  0
    1.6303   -2.1908    0.3479 C   0  0  0  0  0  0  0  0  0  0  0  0
    0.5557   -1.2781    0.9333 C   0  0  0  0  0  0  0  0  0  0  0  0
    1.1481   -0.1828    1.4791 F   0  0  0  0  0  0  0  0  0  0  0  0
    0.0035   -1.9542    1.9845 F   0  0  0  0  0  0  0  0  0  0  0  0
   -0.5430   -0.8650   -0.0419 C   0  0  0  0  0  0  0  0  0  0  0  0
   -1.0768   -1.9844   -0.6111 F   0  0  0  0  0  0  0  0  0  0  0  0
   -0.0138   -0.1497   -1.0727 F   0  0  0  0  0  0  0  0  0  0  0  0
   -1.6259   -0.0535    0.6494 C   0  0  0  0  0  0  0  0  0  0  0  0
   -2.1771   -0.7723    1.6649 F   0  0  0  0  0  0  0  0  0  0  0  0
   -1.0852    1.0563    1.2225 F   0  0  0  0  0  0  0  0  0  0  0  0
   -2.7079    0.3528   -0.3348 C   0  0  0  0  0  0  0  0  0  0  0  0
   -2.1650    1.0772   -1.3516 F   0  0  0  0  0  0  0  0  0  0  0  0
   -3.2481   -0.7540   -0.9149 F   0  0  0  0  0  0  0  0  0  0  0  0
   -3.7892    1.1568    0.3503 C   0  0  0  0  0  0  0  0  0  0  0  0
   -4.3506    0.4398    1.3648 F   0  0  0  0  0  0  0  0  0  0  0  0
   -3.2627    2.2736    0.9287 F   0  0  0  0  0  0  0  0  0  0  0  0
   -4.8516    1.5472   -0.6583 C   0  0  0  0  0  0  0  0  0  0  0  0
   -4.3550    2.3067   -1.6624 F   0  0  0  0  0  0  0  0  0  0  0  0
   -5.4431    0.4708   -1.2268 F   0  0  0  0  0  0  0  0  0  0  0  0
   -5.8399    2.2715   -0.0751 F   0  0  0  0  0  0  0  0  0  0  0  0
  1  2  2  0
  2  3  1  0
  3  4  2  0
  3  5  1  0
  5  6  1  0
  6  7  1  0
  7  8  1  0
  8  9  1  0
  8 10  1  0
  8 11  1  0
 11 12  1  0
 11 13  1  0
 11 14  1  0
 14 15  1  0
 14 16  1  0
 14 17  1  0
 17 18  1  0
 17 19  1  0
 17 20  1  0
 20 21  1  0
 20 22  1  0
 20 23  1  0
 23 24  1  0
 23 25  1  0
 23 26  1  0
M  END
$$$$
