
     RDKit          3D

 32 31  0  0  0  0  0  0  0  0999 V2000
    6.6693   -0.0801    1.6940 C   0  0  0  0  0  0  0  0  0  0  0  0
    5.3836   -0.3621    1.4486 C   0  0  0  0  0  0  0  0  0  0  0  0
    4.8372   -0.2688    0.0794 C   0  0  0  0  0  0  0  0  0  0  0  0
    5.4594    0.0746   -0.9111 O   0  0  0  0  0  0  0  0  0  0  0  0
    3.5279   -0.6253    0.1241 O   0  0  0  0  0  0  0  0  0  0  0  0
    2.8346   -0.5854   -1.1277 C   0  0  0  0  0  0  0  0  0  0  0  0
    2.3244    0.8147   -1.4442 C   0  0  0  0  0  0  0  0  0  0  0  0
    1.4991    1.4704   -0.3396 C   0  0  0  0  0  0  0  0  0  0  0  0
    1.0643    2.6729   -0.8228 F   0  0  0  0  0  0  0  0  0  0  0  0
    2.3554    1.7908    0.6793 F   0  0  0  0  0  0  0  0  0  0  0  0
    0.3080    0.7059    0.2470 C   0  0  0  0  0  0  0  0  0  0  0  0
   -0.2172    1.4522    1.2605 F   0  0  0  0  0  0  0  0  0  0  0  0
    0.7184   -0.4589    0.8159 F   0  0  0  0  0  0  0  0  0  0  0  0
   -0.7729    0.4230   -0.7765 C   0  0  0  0  0  0  0  0  0  0  0  0
   -0.2046   -0.1837   -1.8675 F   0  0  0  0  0  0  0  0  0  0  0  0
   -1.2905    1.5899   -1.2499 F   0  0  0  0  0  0  0  0  0  0  0  0
   -1.9014   -0.4847   -0.3027 C   0  0  0  0  0  0  0  0  0  0  0  0
   -1.4151   -1.7271   -0.0318 F   0  0  0  0  0  0  0  0  0  0  0  0
   -2.7466   -0.6561   -1.3640 F   0  0  0  0  0  0  0  0  0  0  0  0
   -2.7063    0.0201    0.8772 C   0  0  0  0  0  0  0  0  0  0  0  0
   -3.1395    1.2862    0.6481 F   0  0  0  0  0  0  0  0  0  0  0  0
   -1.8883    0.1089    1.9674 F   0  0  0  0  0  0  0  0  0  0  0  0
   -3.8808   -0.8681    1.2744 C   0  0  0  0  0  0  0  0  0  0  0  0
   -4.4517   -0.3172    2.3957 F   0  0  0  0  0  0  0  0  0  0  0  0
   -3.3844   -2.0739    1.6995 F   0  0  0  0  0  0  0  0  0  0  0  0
   -4.9868   -1.1380    0.2726 C   0  0  0  0  0  0  0  0  0  0  0  0
   -4.5331   -1.9238   -0.7426 F   0  0  0  0  0  0  0  0  0  0  0  0
   -5.9533   -1.8925    0.8880 F   0  0  0  0  0  0  0  0  0  0  0  0
   -5.6119    0.1341   -0.2653 C   0  0  0  0  0  0  0  0  0  0  0  0
   -4.7311    0.8478   -1.0039 F   0  0  0  0  0  0  0  0  0  0  0  0
   -6.0547    0.9439    0.7209 F   0  0  0  0  0  0  0  0  0  0  0  0
   -6.6666   -0.1305   -1.0724 F   0  0  0  0  0  0  0  0  0  0  0  0
  1  2  2  0
  2  3  1  0
  3  4  2  0
  3  5  1  0
  5  6  1  0
  6  7  1  0
  7  8  1  0
  8  9  1  0
  8 10  1  0
  8 11  1  0
 11 12  1  0
 11 13  1  0
 11 14  1  0
 14 15  1  0
 14 16  1  0
 14 17  1  0
 17 18  1  0
 17 19  1  0
 17 20  1  0
 20 21  1  0
 20 22  1  0
 20 23  1  0
 23 24  1  0
 23 25  1  0
 23 26  1  0
 26 27  1  0
 26 28  1  0
 26 29  1  0
 29 30  1  0
 29 31  1  0
 29 32  1  0
M  END
$$$$
