
     RDKit          3D

 14 13  0  0  0  0  0  0  0  0999 V2000
   -2.6717    1.2344   -0.4120 O   0  0  0  0  0  0  0  0  0  0  0  0
   -2.3150   -0.1282   -0.6340 C   0  0  0  0  0  0  0  0  0  0  0  0
   -1.0837   -0.5811    0.1499 C   0  0  0  0  0  0  0  0  0  0  0  0
   -0.9435   -1.9228   -0.0386 F   0  0  0  0  0  0  0  0  0  0  0  0
   -1.3498   -0.4139    1.4762 F   0  0  0  0  0  0  0  0  0  0  0  0
    0.1885    0.1534   -0.2448 C   0  0  0  0  0  0  0  0  0  0  0  0
    0.0487    1.4916   -0.0421 F   0  0  0  0  0  0  0  0  0  0  0  0
    0.4115    0.0031   -1.5856 F   0  0  0  0  0  0  0  0  0  0  0  0
    1.3848   -0.3714    0.5203 C   0  0  0  0  0  0  0  0  0  0  0  0
    1.2067   -0.2291    1.8608 F   0  0  0  0  0  0  0  0  0  0  0  0
    1.5428   -1.7073    0.2952 F   0  0  0  0  0  0  0  0  0  0  0  0
    2.6408    0.3534    0.0740 C   0  0  0  0  0  0  0  0  0  0  0  0
    3.7205   -0.0969    0.7704 F   0  0  0  0  0  0  0  0  0  0  0  0
    2.5652    1.6853    0.3191 F   0  0  0  0  0  0  0  0  0  0  0  0
  1  2  1  0
  2  3  1  0
  3  4  1  0
  3  5  1  0
  3  6  1  0
  6  7  1  0
  6  8  1  0
  6  9  1  0
  9 10  1  0
  9 11  1  0
  9 12  1  0
 12 13  1  0
 12 14  1  0
M  END
$$$$
