
     RDKit          3D

 10  9  0  0  0  0  0  0  0  0999 V2000
    2.5811   -0.2470   -0.6609 O   0  0  0  0  0  0  0  0  0  0  0  0
    1.2334    0.2033   -0.6132 C   0  0  0  0  0  0  0  0  0  0  0  0
    0.5870   -0.3643    0.6382 C   0  0  0  0  0  0  0  0  0  0  0  0
   -0.8267    0.1381    0.8811 C   0  0  0  0  0  0  0  0  0  0  0  0
   -0.7854    1.4928    1.0388 F   0  0  0  0  0  0  0  0  0  0  0  0
   -1.2380   -0.3600    2.0861 F   0  0  0  0  0  0  0  0  0  0  0  0
   -1.8329   -0.2430   -0.2068 C   0  0  0  0  0  0  0  0  0  0  0  0
   -1.5173    0.3097   -1.4041 F   0  0  0  0  0  0  0  0  0  0  0  0
   -3.0874    0.1672    0.0955 F   0  0  0  0  0  0  0  0  0  0  0  0
   -1.8819   -1.5843   -0.3943 F   0  0  0  0  0  0  0  0  0  0  0  0
  1  2  1  0
  2  3  1  0
  3  4  1  0
  4  5  1  0
  4  6  1  0
  4  7  1  0
  7  8  1  0
  7  9  1  0
  7 10  1  0
M  END
$$$$
