
     RDKit          3D

 30 29  0  0  0  0  0  0  0  0999 V2000
    5.5702    1.0066   -0.7135 O   0  0  0  0  0  0  0  0  0  0  0  0
    4.8280    0.6767    0.4586 C   0  0  0  0  0  0  0  0  0  0  0  0
    3.3161    0.6314    0.2381 C   0  0  0  0  0  0  0  0  0  0  0  0
    2.9289    1.8198   -0.3026 F   0  0  0  0  0  0  0  0  0  0  0  0
    2.7283    0.5650    1.4637 F   0  0  0  0  0  0  0  0  0  0  0  0
    2.8584   -0.5292   -0.6310 C   0  0  0  0  0  0  0  0  0  0  0  0
    3.5833   -0.5544   -1.7914 F   0  0  0  0  0  0  0  0  0  0  0  0
    3.1509   -1.7052   -0.0007 F   0  0  0  0  0  0  0  0  0  0  0  0
    1.3849   -0.4953   -1.0080 C   0  0  0  0  0  0  0  0  0  0  0  0
    1.1339    0.5810   -1.8079 F   0  0  0  0  0  0  0  0  0  0  0  0
    1.1305   -1.5891   -1.7913 F   0  0  0  0  0  0  0  0  0  0  0  0
    0.4251   -0.4871    0.1665 C   0  0  0  0  0  0  0  0  0  0  0  0
    0.5152    0.6981    0.8268 F   0  0  0  0  0  0  0  0  0  0  0  0
    0.7756   -1.4501    1.0585 F   0  0  0  0  0  0  0  0  0  0  0  0
   -1.0107   -0.6926   -0.2938 C   0  0  0  0  0  0  0  0  0  0  0  0
   -1.1470   -1.8947   -0.9107 F   0  0  0  0  0  0  0  0  0  0  0  0
   -1.3371    0.2458   -1.2215 F   0  0  0  0  0  0  0  0  0  0  0  0
   -1.9831   -0.6029    0.8689 C   0  0  0  0  0  0  0  0  0  0  0  0
   -1.9424    0.6338    1.4325 F   0  0  0  0  0  0  0  0  0  0  0  0
   -1.5795   -1.4553    1.8601 F   0  0  0  0  0  0  0  0  0  0  0  0
   -3.4208   -0.9535    0.5101 C   0  0  0  0  0  0  0  0  0  0  0  0
   -3.4656   -2.2774    0.1550 F   0  0  0  0  0  0  0  0  0  0  0  0
   -4.1716   -0.8799    1.6556 F   0  0  0  0  0  0  0  0  0  0  0  0
   -4.1159   -0.1487   -0.5700 C   0  0  0  0  0  0  0  0  0  0  0  0
   -3.5210   -0.3617   -1.7764 F   0  0  0  0  0  0  0  0  0  0  0  0
   -5.3911   -0.6319   -0.7174 F   0  0  0  0  0  0  0  0  0  0  0  0
   -4.1789    1.3333   -0.2530 C   0  0  0  0  0  0  0  0  0  0  0  0
   -4.7427    1.5772    0.9501 F   0  0  0  0  0  0  0  0  0  0  0  0
   -2.9498    1.8971   -0.2408 F   0  0  0  0  0  0  0  0  0  0  0  0
   -4.9020    2.0088   -1.1784 F   0  0  0  0  0  0  0  0  0  0  0  0
  1  2  1  0
  2  3  1  0
  3  4  1  0
  3  5  1  0
  3  6  1  0
  6  7  1  0
  6  8  1  0
  6  9  1  0
  9 10  1  0
  9 11  1  0
  9 12  1  0
 12 13  1  0
 12 14  1  0
 12 15  1  0
 15 16  1  0
 15 17  1  0
 15 18  1  0
 18 19  1  0
 18 20  1  0
 18 21  1  0
 21 22  1  0
 21 23  1  0
 21 24  1  0
 24 25  1  0
 24 26  1  0
 24 27  1  0
 27 28  1  0
 27 29  1  0
 27 30  1  0
M  END
$$$$
