
     RDKit          3D

 24 23  0  0  0  0  0  0  0  0999 V2000
    4.4305   -1.2737   -1.0332 O   0  0  0  0  0  0  0  0  0  0  0  0
    3.2670   -0.4668   -0.8186 C   0  0  0  0  0  0  0  0  0  0  0  0
    2.7471   -0.5867    0.6207 C   0  0  0  0  0  0  0  0  0  0  0  0
    3.7822   -0.3318    1.4764 F   0  0  0  0  0  0  0  0  0  0  0  0
    2.3692   -1.8723    0.8601 F   0  0  0  0  0  0  0  0  0  0  0  0
    1.6004    0.3649    0.9498 C   0  0  0  0  0  0  0  0  0  0  0  0
    1.2965    0.2590    2.2756 F   0  0  0  0  0  0  0  0  0  0  0  0
    2.0167    1.6511    0.7631 F   0  0  0  0  0  0  0  0  0  0  0  0
    0.3550    0.1030    0.1208 C   0  0  0  0  0  0  0  0  0  0  0  0
    0.6203    0.3351   -1.1947 F   0  0  0  0  0  0  0  0  0  0  0  0
    0.0066   -1.2063    0.2064 F   0  0  0  0  0  0  0  0  0  0  0  0
   -0.8052    0.9742    0.5689 C   0  0  0  0  0  0  0  0  0  0  0  0
   -0.3853    2.2734    0.6631 F   0  0  0  0  0  0  0  0  0  0  0  0
   -1.1896    0.6265    1.8286 F   0  0  0  0  0  0  0  0  0  0  0  0
   -2.0126    0.9516   -0.3577 C   0  0  0  0  0  0  0  0  0  0  0  0
   -2.9502    1.8018    0.1606 F   0  0  0  0  0  0  0  0  0  0  0  0
   -1.6718    1.4892   -1.5644 F   0  0  0  0  0  0  0  0  0  0  0  0
   -2.6229   -0.4132   -0.5628 C   0  0  0  0  0  0  0  0  0  0  0  0
   -1.7672   -1.2029   -1.2718 F   0  0  0  0  0  0  0  0  0  0  0  0
   -2.8103   -1.0359    0.6325 F   0  0  0  0  0  0  0  0  0  0  0  0
   -3.9373   -0.2877   -1.3103 C   0  0  0  0  0  0  0  0  0  0  0  0
   -4.8590    0.4258   -0.6244 F   0  0  0  0  0  0  0  0  0  0  0  0
   -4.4845   -1.5073   -1.5430 F   0  0  0  0  0  0  0  0  0  0  0  0
   -3.7833    0.3069   -2.5163 F   0  0  0  0  0  0  0  0  0  0  0  0
  1  2  1  0
  2  3  1  0
  3  4  1  0
  3  5  1  0
  3  6  1  0
  6  7  1  0
  6  8  1  0
  6  9  1  0
  9 10  1  0
  9 11  1  0
  9 12  1  0
 12 13  1  0
 12 14  1  0
 12 15  1  0
 15 16  1  0
 15 17  1  0
 15 18  1  0
 18 19  1  0
 18 20  1  0
 18 21  1  0
 21 22  1  0
 21 23  1  0
 21 24  1  0
M  END
$$$$
