
     RDKit          3D

 28 27  0  0  0  0  0  0  0  0999 V2000
    5.8349    1.1350    0.4784 O   0  0  0  0  0  0  0  0  0  0  0  0
    4.7010    0.4088    0.0190 C   0  0  0  0  0  0  0  0  0  0  0  0
    3.4670    0.9762    0.6985 C   0  0  0  0  0  0  0  0  0  0  0  0
    2.1907    0.1838    0.4539 C   0  0  0  0  0  0  0  0  0  0  0  0
    1.2345    0.7329    1.2555 F   0  0  0  0  0  0  0  0  0  0  0  0
    2.3695   -1.0866    0.9023 F   0  0  0  0  0  0  0  0  0  0  0  0
    1.6949    0.1705   -0.9869 C   0  0  0  0  0  0  0  0  0  0  0  0
    2.6998   -0.2686   -1.8081 F   0  0  0  0  0  0  0  0  0  0  0  0
    1.4436    1.4503   -1.3895 F   0  0  0  0  0  0  0  0  0  0  0  0
    0.4762   -0.7066   -1.2369 C   0  0  0  0  0  0  0  0  0  0  0  0
    0.1736   -0.6194   -2.5702 F   0  0  0  0  0  0  0  0  0  0  0  0
    0.8004   -2.0151   -1.0296 F   0  0  0  0  0  0  0  0  0  0  0  0
   -0.7524   -0.3465   -0.4211 C   0  0  0  0  0  0  0  0  0  0  0  0
   -0.9571    0.9952   -0.4749 F   0  0  0  0  0  0  0  0  0  0  0  0
   -0.5586   -0.6583    0.8859 F   0  0  0  0  0  0  0  0  0  0  0  0
   -1.9855   -1.0738   -0.9277 C   0  0  0  0  0  0  0  0  0  0  0  0
   -1.6965   -2.4019   -1.0864 F   0  0  0  0  0  0  0  0  0  0  0  0
   -2.3082   -0.6246   -2.1739 F   0  0  0  0  0  0  0  0  0  0  0  0
   -3.2033   -0.9726   -0.0200 C   0  0  0  0  0  0  0  0  0  0  0  0
   -2.9512   -1.6034    1.1618 F   0  0  0  0  0  0  0  0  0  0  0  0
   -4.2131   -1.6913   -0.6000 F   0  0  0  0  0  0  0  0  0  0  0  0
   -3.6729    0.4377    0.2415 C   0  0  0  0  0  0  0  0  0  0  0  0
   -2.7523    1.1073    0.9899 F   0  0  0  0  0  0  0  0  0  0  0  0
   -3.7803    1.1267   -0.9280 F   0  0  0  0  0  0  0  0  0  0  0  0
   -5.0040    0.4156    0.9692 C   0  0  0  0  0  0  0  0  0  0  0  0
   -5.4286    1.6744    1.2467 F   0  0  0  0  0  0  0  0  0  0  0  0
   -5.9829   -0.1702    0.2422 F   0  0  0  0  0  0  0  0  0  0  0  0
   -4.9321   -0.2408    2.1501 F   0  0  0  0  0  0  0  0  0  0  0  0
  1  2  1  0
  2  3  1  0
  3  4  1  0
  4  5  1  0
  4  6  1  0
  4  7  1  0
  7  8  1  0
  7  9  1  0
  7 10  1  0
 10 11  1  0
 10 12  1  0
 10 13  1  0
 13 14  1  0
 13 15  1  0
 13 16  1  0
 16 17  1  0
 16 18  1  0
 16 19  1  0
 19 20  1  0
 19 21  1  0
 19 22  1  0
 22 23  1  0
 22 24  1  0
 22 25  1  0
 25 26  1  0
 25 27  1  0
 25 28  1  0
M  END
$$$$
