
     RDKit          3D

 16 15  0  0  0  0  0  0  0  0999 V2000
   -3.2872    0.5532    1.2926 O   0  0  0  0  0  0  0  0  0  0  0  0
   -2.9720    0.1009   -0.0145 C   0  0  0  0  0  0  0  0  0  0  0  0
   -1.5795    0.5783   -0.3968 C   0  0  0  0  0  0  0  0  0  0  0  0
   -0.4853   -0.2602    0.2600 C   0  0  0  0  0  0  0  0  0  0  0  0
   -0.6307   -0.2493    1.6080 F   0  0  0  0  0  0  0  0  0  0  0  0
   -0.6473   -1.5542   -0.1336 F   0  0  0  0  0  0  0  0  0  0  0  0
    0.9067    0.2303   -0.1209 C   0  0  0  0  0  0  0  0  0  0  0  0
    1.0305    0.2156   -1.4803 F   0  0  0  0  0  0  0  0  0  0  0  0
    1.0455    1.5372    0.2420 F   0  0  0  0  0  0  0  0  0  0  0  0
    1.9840   -0.6150    0.5164 C   0  0  0  0  0  0  0  0  0  0  0  0
    1.8569   -1.9210    0.1432 F   0  0  0  0  0  0  0  0  0  0  0  0
    1.8744   -0.6018    1.8751 F   0  0  0  0  0  0  0  0  0  0  0  0
    3.3439   -0.0907    0.1028 C   0  0  0  0  0  0  0  0  0  0  0  0
    4.3430   -0.8267    0.6532 F   0  0  0  0  0  0  0  0  0  0  0  0
    3.5470    1.1896    0.4926 F   0  0  0  0  0  0  0  0  0  0  0  0
    3.5278   -0.1324   -1.2381 F   0  0  0  0  0  0  0  0  0  0  0  0
  1  2  1  0
  2  3  1  0
  3  4  1  0
  4  5  1  0
  4  6  1  0
  4  7  1  0
  7  8  1  0
  7  9  1  0
  7 10  1  0
 10 11  1  0
 10 12  1  0
 10 13  1  0
 13 14  1  0
 13 15  1  0
 13 16  1  0
M  END
$$$$
