
     RDKit          3D

 23 22  0  0  0  0  0  0  0  0999 V2000
   -3.1354    2.1082    0.7546 F   0  0  0  0  0  0  0  0  0  0  0  0
   -2.1043    1.2323    0.7276 C   0  0  0  0  0  0  0  0  0  0  0  0
   -1.7172    1.0236    2.0040 F   0  0  0  0  0  0  0  0  0  0  0  0
   -1.0876    1.8538    0.0860 F   0  0  0  0  0  0  0  0  0  0  0  0
   -2.4752   -0.0540    0.0322 C   0  0  0  0  0  0  0  0  0  0  0  0
   -3.6278   -0.5492    0.5865 F   0  0  0  0  0  0  0  0  0  0  0  0
   -2.7912    0.2068   -1.2724 F   0  0  0  0  0  0  0  0  0  0  0  0
   -1.4110   -1.1386    0.0938 C   0  0  0  0  0  0  0  0  0  0  0  0
   -1.2716   -1.5993    1.3647 F   0  0  0  0  0  0  0  0  0  0  0  0
   -1.9347   -2.2091   -0.6034 F   0  0  0  0  0  0  0  0  0  0  0  0
   -0.0507   -0.8196   -0.5307 C   0  0  0  0  0  0  0  0  0  0  0  0
    0.4297   -1.9467   -1.1408 F   0  0  0  0  0  0  0  0  0  0  0  0
   -0.2163    0.0881   -1.5228 F   0  0  0  0  0  0  0  0  0  0  0  0
    1.0138   -0.3722    0.4605 C   0  0  0  0  0  0  0  0  0  0  0  0
    1.0889   -1.2929    1.4723 F   0  0  0  0  0  0  0  0  0  0  0  0
    0.6356    0.7780    1.0717 F   0  0  0  0  0  0  0  0  0  0  0  0
    2.4102   -0.2205   -0.1169 C   0  0  0  0  0  0  0  0  0  0  0  0
    2.8855   -1.4287   -0.5364 F   0  0  0  0  0  0  0  0  0  0  0  0
    3.2488    0.1601    0.9007 F   0  0  0  0  0  0  0  0  0  0  0  0
    2.4991    0.7941   -1.2389 C   0  0  0  0  0  0  0  0  0  0  0  0
    1.8806    0.3686   -2.3624 F   0  0  0  0  0  0  0  0  0  0  0  0
    3.7865    1.0394   -1.5843 F   0  0  0  0  0  0  0  0  0  0  0  0
    1.9443    1.9777   -0.8953 F   0  0  0  0  0  0  0  0  0  0  0  0
  1  2  1  0
  2  3  1  0
  2  4  1  0
  2  5  1  0
  5  6  1  0
  5  7  1  0
  5  8  1  0
  8  9  1  0
  8 10  1  0
  8 11  1  0
 11 12  1  0
 11 13  1  0
 11 14  1  0
 14 15  1  0
 14 16  1  0
 14 17  1  0
 17 18  1  0
 17 19  1  0
 17 20  1  0
 20 21  1  0
 20 22  1  0
 20 23  1  0
M  END
$$$$
