
     RDKit          3D

 13 13  0  0  0  0  0  0  0  0999 V2000
   -3.4151    0.2299    1.3546 O   0  0  0  0  0  0  0  0  0  0  0  0
   -2.8126    0.0182    0.3187 C   0  0  0  0  0  0  0  0  0  0  0  0
   -3.4641   -0.2367   -0.8296 O   0  0  0  0  0  0  0  0  0  0  0  0
   -1.3382    0.0065    0.1590 C   0  0  0  0  0  0  0  0  0  0  0  0
   -0.7253   -0.2451   -1.0740 C   0  0  0  0  0  0  0  0  0  0  0  0
    0.6694   -0.2456   -1.1771 C   0  0  0  0  0  0  0  0  0  0  0  0
    1.4703   -0.0016   -0.0499 C   0  0  0  0  0  0  0  0  0  0  0  0
    2.9760    0.0201   -0.1686 C   0  0  0  0  0  0  0  0  0  0  0  0
    3.6081   -0.3481    0.9805 F   0  0  0  0  0  0  0  0  0  0  0  0
    3.4516    1.2571   -0.4786 F   0  0  0  0  0  0  0  0  0  0  0  0
    3.4469   -0.8160   -1.1355 F   0  0  0  0  0  0  0  0  0  0  0  0
    0.8475    0.2586    1.1810 C   0  0  0  0  0  0  0  0  0  0  0  0
   -0.5465    0.2594    1.2855 C   0  0  0  0  0  0  0  0  0  0  0  0
  1  2  2  0
  2  3  1  0
  2  4  1  0
  4  5  2  0
  5  6  1  0
  6  7  2  0
  7  8  1  0
  8  9  1  0
  8 10  1  0
  8 11  1  0
  7 12  1  0
 12 13  2  0
 13  4  1  0
M  END
$$$$
