
     RDKit          3D

  8  8  0  0  0  0  0  0  0  0999 V2000
   -2.6296    0.6985   -0.0071 F   0  0  0  0  0  0  0  0  0  0  0  0
   -1.3353    0.3547   -0.0036 C   0  0  0  0  0  0  0  0  0  0  0  0
   -0.9854   -0.9933   -0.0138 C   0  0  0  0  0  0  0  0  0  0  0  0
    0.3627   -1.3513   -0.0102 C   0  0  0  0  0  0  0  0  0  0  0  0
    1.3353   -0.3547    0.0036 C   0  0  0  0  0  0  0  0  0  0  0  0
    2.6296   -0.6985    0.0070 F   0  0  0  0  0  0  0  0  0  0  0  0
    0.9854    0.9933    0.0138 C   0  0  0  0  0  0  0  0  0  0  0  0
   -0.3627    1.3513    0.0102 C   0  0  0  0  0  0  0  0  0  0  0  0
  1  2  1  0
  2  3  2  0
  3  4  1  0
  4  5  2  0
  5  6  1  0
  5  7  1  0
  7  8  2  0
  8  2  1  0
M  END
$$$$
