
     RDKit          3D

 11 11  0  0  0  0  0  0  0  0999 V2000
   -2.1430   -1.6984   -0.4610 N   0  0  0  0  0  0  0  0  0  0  0  0
   -1.2625   -0.6706   -0.1087 C   0  0  0  0  0  0  0  0  0  0  0  0
   -1.7424    0.6209    0.1182 C   0  0  0  0  0  0  0  0  0  0  0  0
   -0.8629    1.6802    0.3496 C   0  0  0  0  0  0  0  0  0  0  0  0
    0.5132    1.4634    0.3156 C   0  0  0  0  0  0  0  0  0  0  0  0
    1.0194    0.1863    0.0373 C   0  0  0  0  0  0  0  0  0  0  0  0
    2.5047   -0.0480   -0.0598 C   0  0  0  0  0  0  0  0  0  0  0  0
    2.8728   -1.3083    0.3061 F   0  0  0  0  0  0  0  0  0  0  0  0
    2.9780    0.1270   -1.3243 F   0  0  0  0  0  0  0  0  0  0  0  0
    3.2319    0.7916    0.7302 F   0  0  0  0  0  0  0  0  0  0  0  0
    0.1181   -0.8659   -0.2001 C   0  0  0  0  0  0  0  0  0  0  0  0
  1  2  1  0
  2  3  2  0
  3  4  1  0
  4  5  2  0
  5  6  1  0
  6  7  1  0
  7  8  1  0
  7  9  1  0
  7 10  1  0
  6 11  2  0
 11  2  1  0
M  END
$$$$
