
     RDKit          3D

 13 13  0  0  0  0  0  0  0  0999 V2000
    1.8240    2.1091    0.5176 O   0  0  0  0  0  0  0  0  0  0  0  0
    0.9985    1.9187   -0.3823 N   0  0  0  0  0  4  0  0  0  0  0  0
    0.8859    2.5893   -1.4159 O   0  0  0  0  0  1  0  0  0  0  0  0
    0.0527    0.8269   -0.1937 C   0  0  0  0  0  0  0  0  0  0  0  0
   -1.3110    1.1262   -0.3355 C   0  0  0  0  0  0  0  0  0  0  0  0
   -2.2561    0.1227   -0.1342 C   0  0  0  0  0  0  0  0  0  0  0  0
   -1.8415   -1.1641    0.2061 C   0  0  0  0  0  0  0  0  0  0  0  0
   -0.4802   -1.4565    0.3381 C   0  0  0  0  0  0  0  0  0  0  0  0
    0.4965   -0.4655    0.1300 C   0  0  0  0  0  0  0  0  0  0  0  0
    1.9569   -0.8126    0.2542 C   0  0  0  0  0  0  0  0  0  0  0  0
    2.1832   -2.1549    0.1557 F   0  0  0  0  0  0  0  0  0  0  0  0
    2.4900   -0.4420    1.4465 F   0  0  0  0  0  0  0  0  0  0  0  0
    2.7230   -0.2511   -0.7183 F   0  0  0  0  0  0  0  0  0  0  0  0
  1  2  2  0
  2  3  1  0
  2  4  1  0
  4  5  2  0
  5  6  1  0
  6  7  2  0
  7  8  1  0
  8  9  2  0
  9 10  1  0
 10 11  1  0
 10 12  1  0
 10 13  1  0
  9  4  1  0
M  CHG  2   2   1   3  -1
M  END
$$$$
