
     RDKit          3D

 11 11  0  0  0  0  0  0  0  0999 V2000
   -3.0176   -0.3433    0.1181 N   0  0  0  0  0  0  0  0  0  0  0  0
   -1.6333   -0.1948   -0.0159 C   0  0  0  0  0  0  0  0  0  0  0  0
   -1.0672    1.0786   -0.1037 C   0  0  0  0  0  0  0  0  0  0  0  0
    0.3215    1.2457   -0.1175 C   0  0  0  0  0  0  0  0  0  0  0  0
    1.1729    0.1378   -0.0068 C   0  0  0  0  0  0  0  0  0  0  0  0
    2.6704    0.3161    0.0043 C   0  0  0  0  0  0  0  0  0  0  0  0
    3.0877    1.3831   -0.7336 F   0  0  0  0  0  0  0  0  0  0  0  0
    3.1608    0.5150    1.2588 F   0  0  0  0  0  0  0  0  0  0  0  0
    3.3411   -0.7612   -0.4927 F   0  0  0  0  0  0  0  0  0  0  0  0
    0.6026   -1.1328    0.1500 C   0  0  0  0  0  0  0  0  0  0  0  0
   -0.7871   -1.2911    0.1629 C   0  0  0  0  0  0  0  0  0  0  0  0
  1  2  1  0
  2  3  2  0
  3  4  1  0
  4  5  2  0
  5  6  1  0
  6  7  1  0
  6  8  1  0
  6  9  1  0
  5 10  1  0
 10 11  2  0
 11  2  1  0
M  END
$$$$
