
     RDKit          3D

 11 11  0  0  0  0  0  0  0  0999 V2000
   -2.8539    0.8571    0.6683 F   0  0  0  0  0  0  0  0  0  0  0  0
   -2.2415   -0.0936   -0.0911 C   0  0  0  0  0  0  0  0  0  0  0  0
   -2.7000    0.0870   -1.3598 F   0  0  0  0  0  0  0  0  0  0  0  0
   -2.7504   -1.2864    0.3257 F   0  0  0  0  0  0  0  0  0  0  0  0
   -0.7341   -0.0334   -0.0127 C   0  0  0  0  0  0  0  0  0  0  0  0
    0.0367   -1.1951   -0.1845 C   0  0  0  0  0  0  0  0  0  0  0  0
    1.4320   -1.1354   -0.1330 C   0  0  0  0  0  0  0  0  0  0  0  0
    2.0658    0.0863    0.0838 C   0  0  0  0  0  0  0  0  0  0  0  0
    3.7832    0.1592    0.1465 Cl  0  0  0  0  0  0  0  0  0  0  0  0
    1.3168    1.2498    0.2474 C   0  0  0  0  0  0  0  0  0  0  0  0
   -0.0785    1.1912    0.1961 C   0  0  0  0  0  0  0  0  0  0  0  0
  1  2  1  0
  2  3  1  0
  2  4  1  0
  2  5  1  0
  5  6  2  0
  6  7  1  0
  7  8  2  0
  8  9  1  0
  8 10  1  0
 10 11  2  0
 11  5  1  0
M  END
$$$$
