
     RDKit          3D

 13 13  0  0  0  0  0  0  0  0999 V2000
    2.6106    0.8414    0.3077 O   0  0  0  0  0  0  0  0  0  0  0  0
    2.0013   -0.0793   -0.1968 C   0  0  0  0  0  0  0  0  0  0  0  0
    2.6237   -0.9927   -0.9619 O   0  0  0  0  0  0  0  0  0  0  0  0
    0.5442   -0.3399   -0.0833 C   0  0  0  0  0  0  0  0  0  0  0  0
    0.0767   -1.6607   -0.2032 C   0  0  0  0  0  0  0  0  0  0  0  0
   -1.2810   -1.9494   -0.0664 C   0  0  0  0  0  0  0  0  0  0  0  0
   -2.1837   -0.9247    0.1949 C   0  0  0  0  0  0  0  0  0  0  0  0
   -1.7304    0.3899    0.3135 C   0  0  0  0  0  0  0  0  0  0  0  0
   -0.3635    0.7054    0.1706 C   0  0  0  0  0  0  0  0  0  0  0  0
    0.0775    2.1452    0.2811 C   0  0  0  0  0  0  0  0  0  0  0  0
    0.8578    2.5520   -0.7566 F   0  0  0  0  0  0  0  0  0  0  0  0
    0.7500    2.4164    1.4303 F   0  0  0  0  0  0  0  0  0  0  0  0
   -0.9809    3.0124    0.2792 F   0  0  0  0  0  0  0  0  0  0  0  0
  1  2  2  0
  2  3  1  0
  2  4  1  0
  4  5  2  0
  5  6  1  0
  6  7  2  0
  7  8  1  0
  8  9  2  0
  9 10  1  0
 10 11  1  0
 10 12  1  0
 10 13  1  0
  9  4  1  0
M  END
$$$$
