
     RDKit          3D

 16 16  0  0  0  0  0  0  0  0999 V2000
   -3.4322   -0.8130    0.6241 N   0  0  0  0  0  0  0  0  0  0  0  0
   -2.2723   -1.4374    0.1488 N   0  0  0  0  0  0  0  0  0  0  0  0
   -1.0490   -0.7293    0.0958 C   0  0  0  0  0  0  0  0  0  0  0  0
   -0.9756    0.6696    0.1009 C   0  0  0  0  0  0  0  0  0  0  0  0
    0.2538    1.3419   -0.0180 C   0  0  0  0  0  0  0  0  0  0  0  0
    0.2970    2.8510   -0.0179 C   0  0  0  0  0  0  0  0  0  0  0  0
    1.4743    3.3496    0.4512 F   0  0  0  0  0  0  0  0  0  0  0  0
   -0.6769    3.4117    0.7518 F   0  0  0  0  0  0  0  0  0  0  0  0
    0.1380    3.3724   -1.2645 F   0  0  0  0  0  0  0  0  0  0  0  0
    1.4268    0.5909   -0.1828 C   0  0  0  0  0  0  0  0  0  0  0  0
    1.3814   -0.8100   -0.2197 C   0  0  0  0  0  0  0  0  0  0  0  0
    2.6381   -1.6178   -0.4365 C   0  0  0  0  0  0  0  0  0  0  0  0
    2.8905   -1.8363   -1.7553 F   0  0  0  0  0  0  0  0  0  0  0  0
    2.5889   -2.8475    0.1468 F   0  0  0  0  0  0  0  0  0  0  0  0
    3.7510   -1.0132    0.0644 F   0  0  0  0  0  0  0  0  0  0  0  0
    0.1373   -1.4520   -0.0974 C   0  0  0  0  0  0  0  0  0  0  0  0
  1  2  1  0
  2  3  1  0
  3  4  2  0
  4  5  1  0
  5  6  1  0
  6  7  1  0
  6  8  1  0
  6  9  1  0
  5 10  2  0
 10 11  1  0
 11 12  1  0
 12 13  1  0
 12 14  1  0
 12 15  1  0
 11 16  2  0
 16  3  1  0
M  END
$$$$
