
     RDKit          3D

 13 12  0  0  0  0  0  0  0  0999 V2000
    1.9291    0.0073   -1.3819 O   0  0  0  0  0  0  0  0  0  0  0  0
    1.5987    0.5102   -0.3101 C   0  0  0  0  0  0  0  0  0  0  0  0
    2.0696    2.1072    0.2123 Cl  0  0  0  0  0  0  0  0  0  0  0  0
    0.7507   -0.2334    0.7139 C   0  0  0  0  0  0  0  0  0  0  0  0
    1.4773   -1.2554    1.2698 F   0  0  0  0  0  0  0  0  0  0  0  0
    0.3865    0.5475    1.7773 F   0  0  0  0  0  0  0  0  0  0  0  0
   -0.4904   -0.8064    0.0622 C   0  0  0  0  0  0  0  0  0  0  0  0
   -0.1692   -1.6861   -0.9262 F   0  0  0  0  0  0  0  0  0  0  0  0
   -1.1877   -1.5409    0.9844 F   0  0  0  0  0  0  0  0  0  0  0  0
   -1.3717    0.3070   -0.4684 C   0  0  0  0  0  0  0  0  0  0  0  0
   -0.7411    1.0509   -1.4063 F   0  0  0  0  0  0  0  0  0  0  0  0
   -2.5031   -0.1703   -1.0367 F   0  0  0  0  0  0  0  0  0  0  0  0
   -1.7486    1.1626    0.5098 F   0  0  0  0  0  0  0  0  0  0  0  0
  1  2  2  0
  2  3  1  0
  2  4  1  0
  4  5  1  0
  4  6  1  0
  4  7  1  0
  7  8  1  0
  7  9  1  0
  7 10  1  0
 10 11  1  0
 10 12  1  0
 10 13  1  0
M  END
$$$$
