
     RDKit          3D

 25 24  0  0  0  0  0  0  0  0999 V2000
   -4.5599   -2.0464    0.5809 O   0  0  0  0  0  0  0  0  0  0  0  0
   -4.2944   -0.9152    0.1767 C   0  0  0  0  0  0  0  0  0  0  0  0
   -5.3432    0.4692    0.3680 Cl  0  0  0  0  0  0  0  0  0  0  0  0
   -2.9935   -0.5913   -0.5375 C   0  0  0  0  0  0  0  0  0  0  0  0
   -2.5986   -1.6232   -1.3403 F   0  0  0  0  0  0  0  0  0  0  0  0
   -3.1082    0.4852   -1.3710 F   0  0  0  0  0  0  0  0  0  0  0  0
   -1.9468   -0.3220    0.5270 C   0  0  0  0  0  0  0  0  0  0  0  0
   -2.3599    0.7051    1.3214 F   0  0  0  0  0  0  0  0  0  0  0  0
   -1.8191   -1.3989    1.3484 F   0  0  0  0  0  0  0  0  0  0  0  0
   -0.6054    0.0112   -0.1036 C   0  0  0  0  0  0  0  0  0  0  0  0
   -0.7173    1.1135   -0.8908 F   0  0  0  0  0  0  0  0  0  0  0  0
   -0.2205   -1.0030   -0.9222 F   0  0  0  0  0  0  0  0  0  0  0  0
    0.4605    0.2417    0.9517 C   0  0  0  0  0  0  0  0  0  0  0  0
   -0.0121    1.1201    1.8888 F   0  0  0  0  0  0  0  0  0  0  0  0
    0.6912   -0.9166    1.6320 F   0  0  0  0  0  0  0  0  0  0  0  0
    1.7755    0.7978    0.4240 C   0  0  0  0  0  0  0  0  0  0  0  0
    1.5753    2.0500   -0.0769 F   0  0  0  0  0  0  0  0  0  0  0  0
    2.6101    0.9700    1.4944 F   0  0  0  0  0  0  0  0  0  0  0  0
    2.4527   -0.0654   -0.6122 C   0  0  0  0  0  0  0  0  0  0  0  0
    1.7218   -0.0753   -1.7621 F   0  0  0  0  0  0  0  0  0  0  0  0
    2.5090   -1.3581   -0.1893 F   0  0  0  0  0  0  0  0  0  0  0  0
    3.8463    0.4622   -0.8981 C   0  0  0  0  0  0  0  0  0  0  0  0
    3.8282    1.7400   -1.3428 F   0  0  0  0  0  0  0  0  0  0  0  0
    4.4604   -0.2770   -1.8562 F   0  0  0  0  0  0  0  0  0  0  0  0
    4.6479    0.4263    0.1908 F   0  0  0  0  0  0  0  0  0  0  0  0
  1  2  2  0
  2  3  1  0
  2  4  1  0
  4  5  1  0
  4  6  1  0
  4  7  1  0
  7  8  1  0
  7  9  1  0
  7 10  1  0
 10 11  1  0
 10 12  1  0
 10 13  1  0
 13 14  1  0
 13 15  1  0
 13 16  1  0
 16 17  1  0
 16 18  1  0
 16 19  1  0
 19 20  1  0
 19 21  1  0
 19 22  1  0
 22 23  1  0
 22 24  1  0
 22 25  1  0
M  END
$$$$
