
     RDKit          3D

  8  7  0  0  0  0  0  0  0  0999 V2000
   -2.2890    0.5224    0.3628 C   0  0  0  0  0  0  0  0  0  0  0  0
   -1.1614   -0.3330   -0.1808 C   0  0  0  0  0  0  0  0  0  0  0  0
    0.0795    0.2197    0.2756 O   0  0  0  0  0  0  0  0  0  0  0  0
    1.1904   -0.4696   -0.1237 C   0  0  0  0  0  0  0  0  0  0  0  0
    1.1568   -1.4570   -0.8512 O   0  0  0  0  0  0  0  0  0  0  0  0
    2.4551    0.1910    0.4001 C   0  0  0  0  0  0  0  0  0  0  0  0
    2.2233    1.0912    1.4003 F   0  0  0  0  0  0  0  0  0  0  0  0
    3.5741   -1.0467    1.0086 Cl  0  0  0  0  0  0  0  0  0  0  0  0
  1  2  1  0
  2  3  1  0
  3  4  1  0
  4  5  2  0
  4  6  1  0
  6  7  1  0
  6  8  1  0
M  END
$$$$
