
     RDKit          3D

 27 26  0  0  0  0  0  0  0  0999 V2000
   -3.3898   -1.3858   -1.9427 O   0  0  0  0  0  0  0  0  0  0  0  0
   -3.7997   -0.7802   -0.9631 C   0  0  0  0  0  0  0  0  0  0  0  0
   -4.5480   -1.4335   -0.0475 O   0  0  0  0  0  0  0  0  0  0  0  0
   -3.5415    0.6811   -0.6344 C   0  0  0  0  0  0  0  0  0  0  0  0
   -3.1948    1.3897   -1.7518 F   0  0  0  0  0  0  0  0  0  0  0  0
   -4.6827    1.2881   -0.1766 F   0  0  0  0  0  0  0  0  0  0  0  0
   -2.4515    0.8160    0.4159 C   0  0  0  0  0  0  0  0  0  0  0  0
   -2.8483    0.2379    1.5848 F   0  0  0  0  0  0  0  0  0  0  0  0
   -2.2838    2.1417    0.7055 F   0  0  0  0  0  0  0  0  0  0  0  0
   -1.1260    0.2246   -0.0325 C   0  0  0  0  0  0  0  0  0  0  0  0
   -1.2510   -1.1198   -0.1901 F   0  0  0  0  0  0  0  0  0  0  0  0
   -0.7913    0.7242   -1.2490 F   0  0  0  0  0  0  0  0  0  0  0  0
   -0.0216    0.5191    0.9669 C   0  0  0  0  0  0  0  0  0  0  0  0
   -0.4563    0.2059    2.2272 F   0  0  0  0  0  0  0  0  0  0  0  0
    0.2317    1.8576    0.9981 F   0  0  0  0  0  0  0  0  0  0  0  0
    1.2782   -0.2409    0.7355 C   0  0  0  0  0  0  0  0  0  0  0  0
    1.0677   -1.5758    0.9107 F   0  0  0  0  0  0  0  0  0  0  0  0
    2.1463    0.1141    1.7326 F   0  0  0  0  0  0  0  0  0  0  0  0
    1.9301    0.0046   -0.6107 C   0  0  0  0  0  0  0  0  0  0  0  0
    1.1246   -0.5005   -1.5919 F   0  0  0  0  0  0  0  0  0  0  0  0
    2.0113    1.3391   -0.8566 F   0  0  0  0  0  0  0  0  0  0  0  0
    3.2954   -0.6546   -0.7284 C   0  0  0  0  0  0  0  0  0  0  0  0
    3.1667   -2.0077   -0.5734 F   0  0  0  0  0  0  0  0  0  0  0  0
    3.7602   -0.4899   -2.0076 F   0  0  0  0  0  0  0  0  0  0  0  0
    4.2726   -0.0444    0.2648 C   0  0  0  0  0  0  0  0  0  0  0  0
    4.6383    1.1212    0.3036 O   0  0  0  0  0  0  0  0  0  0  0  0
    4.7531   -0.9202    1.1766 O   0  0  0  0  0  0  0  0  0  0  0  0
  1  2  2  0
  2  3  1  0
  2  4  1  0
  4  5  1  0
  4  6  1  0
  4  7  1  0
  7  8  1  0
  7  9  1  0
  7 10  1  0
 10 11  1  0
 10 12  1  0
 10 13  1  0
 13 14  1  0
 13 15  1  0
 13 16  1  0
 16 17  1  0
 16 18  1  0
 16 19  1  0
 19 20  1  0
 19 21  1  0
 19 22  1  0
 22 23  1  0
 22 24  1  0
 22 25  1  0
 25 26  2  0
 25 27  1  0
M  END
$$$$
