
     RDKit          3D

 34 33  0  0  0  0  0  0  0  0999 V2000
    7.3052   -0.0741    0.5076 O   0  0  0  0  0  0  0  0  0  0  0  0
    6.1653   -0.3346    0.8498 C   0  0  0  0  0  0  0  0  0  0  0  0
    5.9043   -1.2821    1.7555 O   0  0  0  0  0  0  0  0  0  0  0  0
    4.9843    0.3373    0.3026 C   0  0  0  0  0  0  0  0  0  0  0  0
    3.7138    0.1473    0.6907 C   0  0  0  0  0  0  0  0  0  0  0  0
    3.4407   -0.7268    1.6876 F   0  0  0  0  0  0  0  0  0  0  0  0
    2.5448    0.8815    0.0869 C   0  0  0  0  0  0  0  0  0  0  0  0
    1.9447    1.6387    1.0483 F   0  0  0  0  0  0  0  0  0  0  0  0
    2.9799    1.7688   -0.8541 F   0  0  0  0  0  0  0  0  0  0  0  0
    1.5266   -0.0779   -0.5320 C   0  0  0  0  0  0  0  0  0  0  0  0
    2.1201   -0.8173   -1.5099 F   0  0  0  0  0  0  0  0  0  0  0  0
    1.0952   -0.9687    0.4015 F   0  0  0  0  0  0  0  0  0  0  0  0
    0.3379    0.6772   -1.0950 C   0  0  0  0  0  0  0  0  0  0  0  0
    0.7800    1.6566   -1.9410 F   0  0  0  0  0  0  0  0  0  0  0  0
   -0.3226    1.3346   -0.1037 F   0  0  0  0  0  0  0  0  0  0  0  0
   -0.6454   -0.1919   -1.8681 C   0  0  0  0  0  0  0  0  0  0  0  0
    0.0033   -0.7210   -2.9535 F   0  0  0  0  0  0  0  0  0  0  0  0
   -1.6079    0.6142   -2.4130 F   0  0  0  0  0  0  0  0  0  0  0  0
   -1.3364   -1.3260   -1.1238 C   0  0  0  0  0  0  0  0  0  0  0  0
   -0.3992   -2.2693   -0.8039 F   0  0  0  0  0  0  0  0  0  0  0  0
   -2.1729   -1.9677   -2.0001 F   0  0  0  0  0  0  0  0  0  0  0  0
   -2.1299   -0.9771    0.1297 C   0  0  0  0  0  0  0  0  0  0  0  0
   -1.2907   -0.4734    1.0740 F   0  0  0  0  0  0  0  0  0  0  0  0
   -2.6064   -2.1442    0.6597 F   0  0  0  0  0  0  0  0  0  0  0  0
   -3.2896   -0.0249   -0.1046 C   0  0  0  0  0  0  0  0  0  0  0  0
   -4.0638   -0.4792   -1.1237 F   0  0  0  0  0  0  0  0  0  0  0  0
   -2.8072    1.1795   -0.5082 F   0  0  0  0  0  0  0  0  0  0  0  0
   -4.1171    0.1483    1.1498 C   0  0  0  0  0  0  0  0  0  0  0  0
   -4.6275   -1.0475    1.5576 F   0  0  0  0  0  0  0  0  0  0  0  0
   -3.3340    0.5903    2.1745 F   0  0  0  0  0  0  0  0  0  0  0  0
   -5.2419    1.1310    0.8897 C   0  0  0  0  0  0  0  0  0  0  0  0
   -4.7832    2.3529    0.5325 F   0  0  0  0  0  0  0  0  0  0  0  0
   -6.0714    0.7123   -0.0939 F   0  0  0  0  0  0  0  0  0  0  0  0
   -6.0057    1.3089    1.9964 F   0  0  0  0  0  0  0  0  0  0  0  0
  1  2  2  0
  2  3  1  0
  2  4  1  0
  4  5  2  0
  5  6  1  0
  5  7  1  0
  7  8  1  0
  7  9  1  0
  7 10  1  0
 10 11  1  0
 10 12  1  0
 10 13  1  0
 13 14  1  0
 13 15  1  0
 13 16  1  0
 16 17  1  0
 16 18  1  0
 16 19  1  0
 19 20  1  0
 19 21  1  0
 19 22  1  0
 22 23  1  0
 22 24  1  0
 22 25  1  0
 25 26  1  0
 25 27  1  0
 25 28  1  0
 28 29  1  0
 28 30  1  0
 28 31  1  0
 31 32  1  0
 31 33  1  0
 31 34  1  0
M  END
$$$$
