
     RDKit          3D

 29 28  0  0  0  0  0  0  0  0999 V2000
   -3.2264   -1.7613    0.8551 O   0  0  0  0  0  0  0  0  0  0  0  0
   -4.0912   -0.9709    0.5198 C   0  0  0  0  0  0  0  0  0  0  0  0
   -5.2692   -0.9158    1.1592 O   0  0  0  0  0  0  0  0  0  0  0  0
   -3.9705    0.0168   -0.5889 C   0  0  0  0  0  0  0  0  0  0  0  0
   -3.2834    1.2808   -0.1248 C   0  0  0  0  0  0  0  0  0  0  0  0
   -4.1399    1.9292    0.7232 F   0  0  0  0  0  0  0  0  0  0  0  0
   -3.1847    2.1035   -1.2138 F   0  0  0  0  0  0  0  0  0  0  0  0
   -1.9124    1.1721    0.5479 C   0  0  0  0  0  0  0  0  0  0  0  0
   -2.0166    0.4653    1.7046 F   0  0  0  0  0  0  0  0  0  0  0  0
   -1.5179    2.4250    0.9295 F   0  0  0  0  0  0  0  0  0  0  0  0
   -0.8555    0.5736   -0.3644 C   0  0  0  0  0  0  0  0  0  0  0  0
   -0.7551    1.3173   -1.5010 F   0  0  0  0  0  0  0  0  0  0  0  0
   -1.2384   -0.6636   -0.7780 F   0  0  0  0  0  0  0  0  0  0  0  0
    0.4936    0.4980    0.3306 C   0  0  0  0  0  0  0  0  0  0  0  0
    0.8851    1.7392    0.7280 F   0  0  0  0  0  0  0  0  0  0  0  0
    0.3930   -0.2445    1.4660 F   0  0  0  0  0  0  0  0  0  0  0  0
    1.5462   -0.1029   -0.5857 C   0  0  0  0  0  0  0  0  0  0  0  0
    1.1583   -1.3437   -0.9880 F   0  0  0  0  0  0  0  0  0  0  0  0
    1.6507    0.6411   -1.7208 F   0  0  0  0  0  0  0  0  0  0  0  0
    2.8962   -0.1824    0.1053 C   0  0  0  0  0  0  0  0  0  0  0  0
    2.7945   -0.9259    1.2403 F   0  0  0  0  0  0  0  0  0  0  0  0
    3.2867    1.0582    0.5056 F   0  0  0  0  0  0  0  0  0  0  0  0
    3.9381   -0.7804   -0.8120 C   0  0  0  0  0  0  0  0  0  0  0  0
    3.5614   -2.0270   -1.2159 F   0  0  0  0  0  0  0  0  0  0  0  0
    4.0545   -0.0394   -1.9507 F   0  0  0  0  0  0  0  0  0  0  0  0
    5.2731   -0.8471   -0.0968 C   0  0  0  0  0  0  0  0  0  0  0  0
    5.7175    0.3743    0.2799 F   0  0  0  0  0  0  0  0  0  0  0  0
    5.2240   -1.6157    1.0158 F   0  0  0  0  0  0  0  0  0  0  0  0
    6.2313   -1.3804   -0.8962 F   0  0  0  0  0  0  0  0  0  0  0  0
  1  2  2  0
  2  3  1  0
  2  4  1  0
  4  5  1  0
  5  6  1  0
  5  7  1  0
  5  8  1  0
  8  9  1  0
  8 10  1  0
  8 11  1  0
 11 12  1  0
 11 13  1  0
 11 14  1  0
 14 15  1  0
 14 16  1  0
 14 17  1  0
 17 18  1  0
 17 19  1  0
 17 20  1  0
 20 21  1  0
 20 22  1  0
 20 23  1  0
 23 24  1  0
 23 25  1  0
 23 26  1  0
 26 27  1  0
 26 28  1  0
 26 29  1  0
M  END
$$$$
