
     RDKit          3D

 34 33  0  0  0  0  0  0  0  0999 V2000
    5.0398   -1.3141    2.1953 O   0  0  0  0  0  0  0  0  0  0  0  0
    5.0537   -0.6817    1.1488 C   0  0  0  0  0  0  0  0  0  0  0  0
    6.0735    0.1748    0.9093 O   0  0  0  0  0  0  0  0  0  0  0  0
    4.0148   -0.7364    0.0436 C   0  0  0  0  0  0  0  0  0  0  0  0
    4.5423   -0.3949   -1.1690 F   0  0  0  0  0  0  0  0  0  0  0  0
    3.5288   -2.0022   -0.1158 F   0  0  0  0  0  0  0  0  0  0  0  0
    2.8955    0.2152    0.4193 C   0  0  0  0  0  0  0  0  0  0  0  0
    2.3522   -0.1425    1.6165 F   0  0  0  0  0  0  0  0  0  0  0  0
    3.3907    1.4720    0.5984 F   0  0  0  0  0  0  0  0  0  0  0  0
    1.8160    0.2272   -0.6485 C   0  0  0  0  0  0  0  0  0  0  0  0
    2.3332    0.6148   -1.8430 F   0  0  0  0  0  0  0  0  0  0  0  0
    1.3359   -1.0301   -0.8355 F   0  0  0  0  0  0  0  0  0  0  0  0
    0.6691    1.1454   -0.2619 C   0  0  0  0  0  0  0  0  0  0  0  0
    1.1651    2.3796    0.0563 F   0  0  0  0  0  0  0  0  0  0  0  0
    0.0689    0.7001    0.8752 F   0  0  0  0  0  0  0  0  0  0  0  0
   -0.3819    1.3333   -1.3489 C   0  0  0  0  0  0  0  0  0  0  0  0
    0.2128    1.9286   -2.4305 F   0  0  0  0  0  0  0  0  0  0  0  0
   -1.2968    2.2559   -0.9192 F   0  0  0  0  0  0  0  0  0  0  0  0
   -1.1346    0.1021   -1.8335 C   0  0  0  0  0  0  0  0  0  0  0  0
   -0.2560   -0.7105   -2.4955 F   0  0  0  0  0  0  0  0  0  0  0  0
   -2.0236    0.4947   -2.8002 F   0  0  0  0  0  0  0  0  0  0  0  0
   -1.8857   -0.7275   -0.7989 C   0  0  0  0  0  0  0  0  0  0  0  0
   -1.0017   -1.2548    0.0902 F   0  0  0  0  0  0  0  0  0  0  0  0
   -2.4305   -1.8035   -1.4433 F   0  0  0  0  0  0  0  0  0  0  0  0
   -2.9832    0.0239   -0.0658 C   0  0  0  0  0  0  0  0  0  0  0  0
   -3.7993    0.6406   -0.9591 F   0  0  0  0  0  0  0  0  0  0  0  0
   -2.4279    1.0140    0.6808 F   0  0  0  0  0  0  0  0  0  0  0  0
   -3.7806   -0.9036    0.8243 C   0  0  0  0  0  0  0  0  0  0  0  0
   -2.9562   -1.5322    1.7097 F   0  0  0  0  0  0  0  0  0  0  0  0
   -4.3635   -1.8917    0.0891 F   0  0  0  0  0  0  0  0  0  0  0  0
   -4.8413   -0.1147    1.5666 C   0  0  0  0  0  0  0  0  0  0  0  0
   -5.5768   -0.9181    2.3748 F   0  0  0  0  0  0  0  0  0  0  0  0
   -5.7097    0.4940    0.7261 F   0  0  0  0  0  0  0  0  0  0  0  0
   -4.3076    0.8471    2.3548 F   0  0  0  0  0  0  0  0  0  0  0  0
  1  2  2  0
  2  3  1  0
  2  4  1  0
  4  5  1  0
  4  6  1  0
  4  7  1  0
  7  8  1  0
  7  9  1  0
  7 10  1  0
 10 11  1  0
 10 12  1  0
 10 13  1  0
 13 14  1  0
 13 15  1  0
 13 16  1  0
 16 17  1  0
 16 18  1  0
 16 19  1  0
 19 20  1  0
 19 21  1  0
 19 22  1  0
 22 23  1  0
 22 24  1  0
 22 25  1  0
 25 26  1  0
 25 27  1  0
 25 28  1  0
 28 29  1  0
 28 30  1  0
 28 31  1  0
 31 32  1  0
 31 33  1  0
 31 34  1  0
M  END
$$$$
