
     RDKit          3D

 19 18  0  0  0  0  0  0  0  0999 V2000
    2.4113   -1.5879    1.6698 O   0  0  0  0  0  0  0  0  0  0  0  0
    2.3805   -0.6397    0.8996 C   0  0  0  0  0  0  0  0  0  0  0  0
    2.7753    0.5790    1.3335 O   0  0  0  0  0  0  0  0  0  0  0  0
    1.9091   -0.6588   -0.5458 C   0  0  0  0  0  0  0  0  0  0  0  0
    2.5269   -1.6686   -1.2364 F   0  0  0  0  0  0  0  0  0  0  0  0
    2.2475    0.4831   -1.2189 F   0  0  0  0  0  0  0  0  0  0  0  0
    0.4044   -0.8634   -0.6059 C   0  0  0  0  0  0  0  0  0  0  0  0
    0.0276   -0.9549   -1.9171 F   0  0  0  0  0  0  0  0  0  0  0  0
    0.0656   -2.0592   -0.0491 F   0  0  0  0  0  0  0  0  0  0  0  0
   -0.3642    0.2614    0.0630 C   0  0  0  0  0  0  0  0  0  0  0  0
    0.0099    1.4581   -0.4624 F   0  0  0  0  0  0  0  0  0  0  0  0
   -0.0368    0.3199    1.3834 F   0  0  0  0  0  0  0  0  0  0  0  0
   -1.8566    0.0679   -0.0899 C   0  0  0  0  0  0  0  0  0  0  0  0
   -2.2044    0.0224   -1.4065 F   0  0  0  0  0  0  0  0  0  0  0  0
   -2.2382   -1.1283    0.4407 F   0  0  0  0  0  0  0  0  0  0  0  0
   -2.5905    1.2002    0.6014 C   0  0  0  0  0  0  0  0  0  0  0  0
   -2.3153    1.2568    1.9257 F   0  0  0  0  0  0  0  0  0  0  0  0
   -3.9347    1.0584    0.4883 F   0  0  0  0  0  0  0  0  0  0  0  0
   -2.2807    2.4093    0.0785 F   0  0  0  0  0  0  0  0  0  0  0  0
  1  2  2  0
  2  3  1  0
  2  4  1  0
  4  5  1  0
  4  6  1  0
  4  7  1  0
  7  8  1  0
  7  9  1  0
  7 10  1  0
 10 11  1  0
 10 12  1  0
 10 13  1  0
 13 14  1  0
 13 15  1  0
 13 16  1  0
 16 17  1  0
 16 18  1  0
 16 19  1  0
M  END
$$$$
