
     RDKit          3D

 24 23  0  0  0  0  0  0  0  0999 V2000
   -4.8241   -0.3332   -1.2917 O   0  0  0  0  0  0  0  0  0  0  0  0
   -4.3303   -0.1208   -0.1932 C   0  0  0  0  0  0  0  0  0  0  0  0
   -4.9333    0.7582    0.6407 O   0  0  0  0  0  0  0  0  0  0  0  0
   -3.0649   -0.7438    0.3685 C   0  0  0  0  0  0  0  0  0  0  0  0
   -2.9349   -2.0423   -0.0321 F   0  0  0  0  0  0  0  0  0  0  0  0
   -3.0837   -0.7854    1.7337 F   0  0  0  0  0  0  0  0  0  0  0  0
   -1.8917    0.0831   -0.1214 C   0  0  0  0  0  0  0  0  0  0  0  0
   -2.0382    1.3807    0.2710 F   0  0  0  0  0  0  0  0  0  0  0  0
   -1.8727    0.1102   -1.4835 F   0  0  0  0  0  0  0  0  0  0  0  0
   -0.5817   -0.4736    0.4049 C   0  0  0  0  0  0  0  0  0  0  0  0
   -0.4349   -1.7689    0.0145 F   0  0  0  0  0  0  0  0  0  0  0  0
   -0.5970   -0.4928    1.7660 F   0  0  0  0  0  0  0  0  0  0  0  0
    0.5976    0.3501   -0.0842 C   0  0  0  0  0  0  0  0  0  0  0  0
    0.4486    1.6453    0.3076 F   0  0  0  0  0  0  0  0  0  0  0  0
    0.6149    0.3708   -1.4447 F   0  0  0  0  0  0  0  0  0  0  0  0
    1.9074   -0.2050    0.4444 C   0  0  0  0  0  0  0  0  0  0  0  0
    2.0521   -1.5039    0.0594 F   0  0  0  0  0  0  0  0  0  0  0  0
    1.8893   -0.2245    1.8077 F   0  0  0  0  0  0  0  0  0  0  0  0
    3.0809    0.6200   -0.0482 C   0  0  0  0  0  0  0  0  0  0  0  0
    2.9368    1.9263    0.3239 F   0  0  0  0  0  0  0  0  0  0  0  0
    3.1163    0.6334   -1.4128 F   0  0  0  0  0  0  0  0  0  0  0  0
    4.3450    0.0068    0.5270 C   0  0  0  0  0  0  0  0  0  0  0  0
    4.9858   -0.9227    0.0568 O   0  0  0  0  0  0  0  0  0  0  0  0
    4.7615    0.5757    1.6822 O   0  0  0  0  0  0  0  0  0  0  0  0
  1  2  2  0
  2  3  1  0
  2  4  1  0
  4  5  1  0
  4  6  1  0
  4  7  1  0
  7  8  1  0
  7  9  1  0
  7 10  1  0
 10 11  1  0
 10 12  1  0
 10 13  1  0
 13 14  1  0
 13 15  1  0
 13 16  1  0
 16 17  1  0
 16 18  1  0
 16 19  1  0
 19 20  1  0
 19 21  1  0
 19 22  1  0
 22 23  2  0
 22 24  1  0
M  END
$$$$
