
     RDKit          3D

 28 27  0  0  0  0  0  0  0  0999 V2000
   -3.5443   -1.3775    0.0301 O   0  0  0  0  0  0  0  0  0  0  0  0
   -3.5996   -0.4196   -0.7271 C   0  0  0  0  0  0  0  0  0  0  0  0
   -4.6600    0.4136   -0.6679 O   0  0  0  0  0  0  0  0  0  0  0  0
   -2.5444   -0.0272   -1.7458 C   0  0  0  0  0  0  0  0  0  0  0  0
   -1.9248   -1.1160   -2.2869 F   0  0  0  0  0  0  0  0  0  0  0  0
   -3.1042    0.6148   -2.8206 F   0  0  0  0  0  0  0  0  0  0  0  0
   -1.5167    0.8894   -1.1049 C   0  0  0  0  0  0  0  0  0  0  0  0
   -0.5911    1.2458   -2.0498 F   0  0  0  0  0  0  0  0  0  0  0  0
   -2.1289    2.0673   -0.7571 F   0  0  0  0  0  0  0  0  0  0  0  0
   -0.7776    0.3699    0.1216 C   0  0  0  0  0  0  0  0  0  0  0  0
   -1.6491    0.1829    1.1475 F   0  0  0  0  0  0  0  0  0  0  0  0
    0.0586    1.3600    0.5565 F   0  0  0  0  0  0  0  0  0  0  0  0
    0.0469   -0.8825   -0.1081 C   0  0  0  0  0  0  0  0  0  0  0  0
   -0.7979   -1.9023   -0.4368 F   0  0  0  0  0  0  0  0  0  0  0  0
    0.8719   -0.7496   -1.1756 F   0  0  0  0  0  0  0  0  0  0  0  0
    0.8566   -1.3192    1.1000 C   0  0  0  0  0  0  0  0  0  0  0  0
   -0.0228   -1.5792    2.1209 F   0  0  0  0  0  0  0  0  0  0  0  0
    1.4024   -2.5447    0.7980 F   0  0  0  0  0  0  0  0  0  0  0  0
    1.9822   -0.4482    1.6625 C   0  0  0  0  0  0  0  0  0  0  0  0
    2.4763   -1.1646    2.7394 F   0  0  0  0  0  0  0  0  0  0  0  0
    1.4998    0.6883    2.2234 F   0  0  0  0  0  0  0  0  0  0  0  0
    3.1688   -0.1610    0.7556 C   0  0  0  0  0  0  0  0  0  0  0  0
    4.3010   -0.0615    1.5283 F   0  0  0  0  0  0  0  0  0  0  0  0
    3.3931   -1.2117   -0.0786 F   0  0  0  0  0  0  0  0  0  0  0  0
    3.0420    1.1406   -0.0155 C   0  0  0  0  0  0  0  0  0  0  0  0
    1.9632    1.1627   -0.8230 F   0  0  0  0  0  0  0  0  0  0  0  0
    4.1235    1.3566   -0.8025 F   0  0  0  0  0  0  0  0  0  0  0  0
    2.9362    2.2090    0.8071 F   0  0  0  0  0  0  0  0  0  0  0  0
  1  2  2  0
  2  3  1  0
  2  4  1  0
  4  5  1  0
  4  6  1  0
  4  7  1  0
  7  8  1  0
  7  9  1  0
  7 10  1  0
 10 11  1  0
 10 12  1  0
 10 13  1  0
 13 14  1  0
 13 15  1  0
 13 16  1  0
 16 17  1  0
 16 18  1  0
 16 19  1  0
 19 20  1  0
 19 21  1  0
 19 22  1  0
 22 23  1  0
 22 24  1  0
 22 25  1  0
 25 26  1  0
 25 27  1  0
 25 28  1  0
M  END
$$$$
