
     RDKit          3D

 22 21  0  0  0  0  0  0  0  0999 V2000
    3.6004   -0.6733    0.6975 O   0  0  0  0  0  0  0  0  0  0  0  0
    3.0278   -0.5762   -0.3777 C   0  0  0  0  0  0  0  0  0  0  0  0
    3.1625   -1.5626   -1.2929 O   0  0  0  0  0  0  0  0  0  0  0  0
    2.1316    0.5674   -0.8262 C   0  0  0  0  0  0  0  0  0  0  0  0
    1.7766    0.4699   -2.1435 F   0  0  0  0  0  0  0  0  0  0  0  0
    2.7997    1.7603   -0.7294 F   0  0  0  0  0  0  0  0  0  0  0  0
    0.8795    0.6328    0.0334 C   0  0  0  0  0  0  0  0  0  0  0  0
    0.1528    1.7284   -0.3379 F   0  0  0  0  0  0  0  0  0  0  0  0
    1.1957    0.8369    1.3392 F   0  0  0  0  0  0  0  0  0  0  0  0
    0.0054   -0.5984   -0.1075 C   0  0  0  0  0  0  0  0  0  0  0  0
   -0.3778   -0.7695   -1.3995 F   0  0  0  0  0  0  0  0  0  0  0  0
    0.7464   -1.7110    0.1866 F   0  0  0  0  0  0  0  0  0  0  0  0
   -1.2191   -0.6064    0.7984 C   0  0  0  0  0  0  0  0  0  0  0  0
   -0.7893   -0.6615    2.0994 F   0  0  0  0  0  0  0  0  0  0  0  0
   -1.8727   -1.7975    0.6036 F   0  0  0  0  0  0  0  0  0  0  0  0
   -2.2299    0.5169    0.6780 C   0  0  0  0  0  0  0  0  0  0  0  0
   -1.6818    1.6963    1.0803 F   0  0  0  0  0  0  0  0  0  0  0  0
   -3.2455    0.2814    1.5698 F   0  0  0  0  0  0  0  0  0  0  0  0
   -2.8117    0.6365   -0.7176 C   0  0  0  0  0  0  0  0  0  0  0  0
   -3.7900    1.5719   -0.7706 F   0  0  0  0  0  0  0  0  0  0  0  0
   -1.8771    1.0050   -1.6223 F   0  0  0  0  0  0  0  0  0  0  0  0
   -3.3475   -0.5265   -1.1490 F   0  0  0  0  0  0  0  0  0  0  0  0
  1  2  2  0
  2  3  1  0
  2  4  1  0
  4  5  1  0
  4  6  1  0
  4  7  1  0
  7  8  1  0
  7  9  1  0
  7 10  1  0
 10 11  1  0
 10 12  1  0
 10 13  1  0
 13 14  1  0
 13 15  1  0
 13 16  1  0
 16 17  1  0
 16 18  1  0
 16 19  1  0
 19 20  1  0
 19 21  1  0
 19 22  1  0
M  END
$$$$
