
     RDKit          3D

 10  9  0  0  0  0  0  0  0  0999 V2000
    2.1813   -0.7907   -0.9958 F   0  0  0  0  0  0  0  0  0  0  0  0
    1.8550    0.1705   -0.1011 C   0  0  0  0  0  0  0  0  0  0  0  0
    2.6927    1.2112   -0.3313 F   0  0  0  0  0  0  0  0  0  0  0  0
    0.5606    0.6182   -0.4040 O   0  0  0  0  0  0  0  0  0  0  0  0
   -0.3786   -0.2300    0.2230 C   0  0  0  0  0  0  0  0  0  0  0  0
   -0.1978   -0.1351    1.5642 F   0  0  0  0  0  0  0  0  0  0  0  0
   -0.0988   -1.5113   -0.1260 F   0  0  0  0  0  0  0  0  0  0  0  0
   -1.8151    0.1216   -0.1694 C   0  0  0  0  0  0  0  0  0  0  0  0
   -2.7047   -0.7076    0.4394 F   0  0  0  0  0  0  0  0  0  0  0  0
   -2.1357    1.3829    0.2283 F   0  0  0  0  0  0  0  0  0  0  0  0
  1  2  1  0
  2  3  1  0
  2  4  1  0
  4  5  1  0
  5  6  1  0
  5  7  1  0
  5  8  1  0
  8  9  1  0
  8 10  1  0
M  END
$$$$
