
     RDKit          3D

 23 22  0  0  0  0  0  0  0  0999 V2000
    4.4893   -0.7639   -1.0417 O   0  0  0  0  0  0  0  0  0  0  0  0
    3.8923   -0.5314   -0.0001 C   0  0  0  0  0  0  0  0  0  0  0  0
    4.5144    0.1730    0.9734 O   0  0  0  0  0  0  0  0  0  0  0  0
    2.4753   -0.9478    0.3432 C   0  0  0  0  0  0  0  0  0  0  0  0
    2.1808   -2.1759   -0.1754 F   0  0  0  0  0  0  0  0  0  0  0  0
    2.2935   -1.0712    1.6910 F   0  0  0  0  0  0  0  0  0  0  0  0
    1.5485    0.1015   -0.2230 C   0  0  0  0  0  0  0  0  0  0  0  0
    1.7091    0.2174   -1.5737 F   0  0  0  0  0  0  0  0  0  0  0  0
    1.8402    1.3343    0.2877 F   0  0  0  0  0  0  0  0  0  0  0  0
    0.0996   -0.2588    0.0950 C   0  0  0  0  0  0  0  0  0  0  0  0
   -0.1100   -0.3408    1.4260 F   0  0  0  0  0  0  0  0  0  0  0  0
   -0.2379   -1.4504   -0.4467 F   0  0  0  0  0  0  0  0  0  0  0  0
   -0.8098    0.6904   -0.4449 O   0  0  0  0  0  0  0  0  0  0  0  0
   -2.1301    0.6375    0.1320 C   0  0  0  0  0  0  0  0  0  0  0  0
   -2.0136    1.1518    1.3942 F   0  0  0  0  0  0  0  0  0  0  0  0
   -3.0541    1.5418   -0.6761 C   0  0  0  0  0  0  0  0  0  0  0  0
   -3.2326    1.0928   -1.9404 F   0  0  0  0  0  0  0  0  0  0  0  0
   -2.5375    2.7941   -0.7813 F   0  0  0  0  0  0  0  0  0  0  0  0
   -4.2783    1.6786   -0.1202 F   0  0  0  0  0  0  0  0  0  0  0  0
   -2.8389   -0.7169    0.1650 C   0  0  0  0  0  0  0  0  0  0  0  0
   -2.2033   -1.6034    0.9681 F   0  0  0  0  0  0  0  0  0  0  0  0
   -4.1049   -0.6307    0.6328 F   0  0  0  0  0  0  0  0  0  0  0  0
   -2.9042   -1.2802   -1.0635 F   0  0  0  0  0  0  0  0  0  0  0  0
  1  2  2  0
  2  3  1  0
  2  4  1  0
  4  5  1  0
  4  6  1  0
  4  7  1  0
  7  8  1  0
  7  9  1  0
  7 10  1  0
 10 11  1  0
 10 12  1  0
 10 13  1  0
 13 14  1  0
 14 15  1  0
 14 16  1  0
 16 17  1  0
 16 18  1  0
 16 19  1  0
 14 20  1  0
 20 21  1  0
 20 22  1  0
 20 23  1  0
M  END
$$$$
