
     RDKit          3D

 25 24  0  0  0  0  0  0  0  0999 V2000
    5.3431    0.7184   -0.4866 O   0  0  0  0  0  0  0  0  0  0  0  0
    4.3275    1.2175   -0.0204 C   0  0  0  0  0  0  0  0  0  0  0  0
    4.3694    2.4961    0.4324 O   0  0  0  0  0  0  0  0  0  0  0  0
    2.9353    0.5542    0.1261 C   0  0  0  0  0  0  0  0  0  0  0  0
    1.9931    1.2354   -0.5809 F   0  0  0  0  0  0  0  0  0  0  0  0
    2.5266    0.5623    1.4228 F   0  0  0  0  0  0  0  0  0  0  0  0
    2.9087   -0.7660   -0.3522 O   0  0  0  0  0  0  0  0  0  0  0  0
    1.8178   -1.5036    0.1570 C   0  0  0  0  0  0  0  0  0  0  0  0
    1.8788   -2.7050   -0.4955 F   0  0  0  0  0  0  0  0  0  0  0  0
    2.0915   -1.7996    1.4569 F   0  0  0  0  0  0  0  0  0  0  0  0
    0.3670   -0.9339   -0.0021 C   0  0  0  0  0  0  0  0  0  0  0  0
    0.1275   -0.6146   -1.2970 F   0  0  0  0  0  0  0  0  0  0  0  0
    0.1885    0.1900    0.7298 F   0  0  0  0  0  0  0  0  0  0  0  0
   -0.6175   -1.8496    0.4366 O   0  0  0  0  0  0  0  0  0  0  0  0
   -1.9016   -1.5494   -0.0736 C   0  0  0  0  0  0  0  0  0  0  0  0
   -1.9129   -1.9095   -1.3858 F   0  0  0  0  0  0  0  0  0  0  0  0
   -2.7332   -2.4453    0.5421 F   0  0  0  0  0  0  0  0  0  0  0  0
   -2.4946   -0.1160    0.1255 C   0  0  0  0  0  0  0  0  0  0  0  0
   -1.7887    0.8054   -0.5738 F   0  0  0  0  0  0  0  0  0  0  0  0
   -2.4283    0.2302    1.4360 F   0  0  0  0  0  0  0  0  0  0  0  0
   -3.8316   -0.0431   -0.3193 O   0  0  0  0  0  0  0  0  0  0  0  0
   -4.4436    1.0858    0.2298 C   0  0  0  0  0  0  0  0  0  0  0  0
   -5.5803    1.3249   -0.4571 F   0  0  0  0  0  0  0  0  0  0  0  0
   -3.6639    2.1780    0.1460 F   0  0  0  0  0  0  0  0  0  0  0  0
   -4.7733    0.8543    1.5143 F   0  0  0  0  0  0  0  0  0  0  0  0
  1  2  2  0
  2  3  1  0
  2  4  1  0
  4  5  1  0
  4  6  1  0
  4  7  1  0
  7  8  1  0
  8  9  1  0
  8 10  1  0
  8 11  1  0
 11 12  1  0
 11 13  1  0
 11 14  1  0
 14 15  1  0
 15 16  1  0
 15 17  1  0
 15 18  1  0
 18 19  1  0
 18 20  1  0
 18 21  1  0
 21 22  1  0
 22 23  1  0
 22 24  1  0
 22 25  1  0
M  END
$$$$
