
     RDKit          3D

 11 10  0  0  0  0  0  0  0  0999 V2000
   -3.5186    0.0415    1.0012 C   0  0  0  0  0  0  0  0  0  0  0  0
   -2.3834   -0.2180    0.0239 C   0  0  0  0  0  0  0  0  0  0  0  0
   -1.0270    0.1067    0.6433 C   0  0  0  0  0  0  0  0  0  0  0  0
    0.1156   -0.1519   -0.3334 C   0  0  0  0  0  0  0  0  0  0  0  0
    1.3388    0.1737    0.3207 O   0  0  0  0  0  0  0  0  0  0  0  0
    2.4605   -0.0045   -0.5447 C   0  0  0  0  0  0  0  0  0  0  0  0
    2.4251   -1.2631   -1.0485 F   0  0  0  0  0  0  0  0  0  0  0  0
    2.3054    0.8513   -1.5899 F   0  0  0  0  0  0  0  0  0  0  0  0
    3.7832    0.2760    0.1730 C   0  0  0  0  0  0  0  0  0  0  0  0
    4.8406    0.1406   -0.6727 F   0  0  0  0  0  0  0  0  0  0  0  0
    3.9932   -0.6063    1.1882 F   0  0  0  0  0  0  0  0  0  0  0  0
  1  2  1  0
  2  3  1  0
  3  4  1  0
  4  5  1  0
  5  6  1  0
  6  7  1  0
  6  8  1  0
  6  9  1  0
  9 10  1  0
  9 11  1  0
M  END
$$$$
