
     RDKit          3D

 18 17  0  0  0  0  0  0  0  0999 V2000
    1.8736   -1.0680    1.5780 O   0  0  0  0  0  0  0  0  0  0  0  0
    2.3282   -0.0694    0.6355 S   0  0  0  0  0  6  0  0  0  0  0  0
    3.3709   -0.3660   -0.3252 O   0  0  0  0  0  0  0  0  0  0  0  0
    2.9332    1.1562    1.5095 O   0  0  0  0  0  0  0  0  0  0  0  0
    0.9349    0.7845   -0.1489 C   0  0  0  0  0  0  0  0  0  0  0  0
    0.1516    1.4630    0.7413 F   0  0  0  0  0  0  0  0  0  0  0  0
    1.3838    1.7408   -1.0253 F   0  0  0  0  0  0  0  0  0  0  0  0
    0.1235   -0.2707   -0.9003 C   0  0  0  0  0  0  0  0  0  0  0  0
    0.9214   -0.8852   -1.8186 F   0  0  0  0  0  0  0  0  0  0  0  0
   -0.8419    0.3267   -1.6504 F   0  0  0  0  0  0  0  0  0  0  0  0
   -0.5158   -1.3193   -0.2096 O   0  0  0  0  0  0  0  0  0  0  0  0
   -1.5318   -0.9296    0.7003 C   0  0  0  0  0  0  0  0  0  0  0  0
   -0.9094   -0.3415    1.7535 F   0  0  0  0  0  0  0  0  0  0  0  0
   -2.0202   -2.1088    1.1874 F   0  0  0  0  0  0  0  0  0  0  0  0
   -2.7249   -0.0688    0.2055 C   0  0  0  0  0  0  0  0  0  0  0  0
   -3.3138   -0.6022   -0.8909 F   0  0  0  0  0  0  0  0  0  0  0  0
   -2.3395    1.1917   -0.1119 F   0  0  0  0  0  0  0  0  0  0  0  0
   -3.6833    0.0516    1.1576 F   0  0  0  0  0  0  0  0  0  0  0  0
  1  2  2  0
  2  3  2  0
  2  4  1  0
  2  5  1  0
  5  6  1  0
  5  7  1  0
  5  8  1  0
  8  9  1  0
  8 10  1  0
  8 11  1  0
 11 12  1  0
 12 13  1  0
 12 14  1  0
 12 15  1  0
 15 16  1  0
 15 17  1  0
 15 18  1  0
M  END
$$$$
