
     RDKit          3D

 17 16  0  0  0  0  0  0  0  0999 V2000
    3.3537    0.2770   -0.8067 O   0  0  0  0  0  0  0  0  0  0  0  0
    2.7044    0.0608    0.2068 C   0  0  0  0  0  0  0  0  0  0  0  0
    3.3236   -0.4724    1.2854 O   0  0  0  0  0  0  0  0  0  0  0  0
    1.2240    0.3242    0.4065 C   0  0  0  0  0  0  0  0  0  0  0  0
    0.8379    1.4688   -0.2295 F   0  0  0  0  0  0  0  0  0  0  0  0
    0.9158    0.5222    1.7225 F   0  0  0  0  0  0  0  0  0  0  0  0
    0.4774   -0.8721   -0.1387 C   0  0  0  0  0  0  0  0  0  0  0  0
    0.8996   -2.0190    0.4727 F   0  0  0  0  0  0  0  0  0  0  0  0
    0.7486   -1.0446   -1.4664 F   0  0  0  0  0  0  0  0  0  0  0  0
   -1.0275   -0.7121    0.0581 C   0  0  0  0  0  0  0  0  0  0  0  0
   -1.3234   -0.6113    1.3774 F   0  0  0  0  0  0  0  0  0  0  0  0
   -1.6591   -1.8246   -0.4000 F   0  0  0  0  0  0  0  0  0  0  0  0
   -1.5579    0.4169   -0.5910 O   0  0  0  0  0  0  0  0  0  0  0  0
   -2.9488    0.2987   -0.6916 C   0  0  0  0  0  0  0  0  0  0  0  0
   -3.5072   -0.1218    0.4568 F   0  0  0  0  0  0  0  0  0  0  0  0
   -3.4536    1.5149   -0.9861 F   0  0  0  0  0  0  0  0  0  0  0  0
   -3.2701   -0.5405   -1.6936 F   0  0  0  0  0  0  0  0  0  0  0  0
  1  2  2  0
  2  3  1  0
  2  4  1  0
  4  5  1  0
  4  6  1  0
  4  7  1  0
  7  8  1  0
  7  9  1  0
  7 10  1  0
 10 11  1  0
 10 12  1  0
 10 13  1  0
 13 14  1  0
 14 15  1  0
 14 16  1  0
 14 17  1  0
M  END
$$$$
