
     RDKit          3D

 18 17  0  0  0  0  0  0  0  0999 V2000
   -2.2900   -0.4155   -1.6855 O   0  0  0  0  0  0  0  0  0  0  0  0
   -2.7616    0.2708   -0.7867 C   0  0  0  0  0  0  0  0  0  0  0  0
   -3.7905    1.1094   -1.0590 O   0  0  0  0  0  0  0  0  0  0  0  0
   -2.3136    0.2765    0.7022 C   0  0  0  0  0  0  0  0  0  0  0  0
   -2.1938    1.5378    1.2050 F   0  0  0  0  0  0  0  0  0  0  0  0
   -3.2734   -0.3191    1.4725 F   0  0  0  0  0  0  0  0  0  0  0  0
   -1.1316   -0.4350    0.9747 O   0  0  0  0  0  0  0  0  0  0  0  0
    0.0073    0.3369    0.6435 C   0  0  0  0  0  0  0  0  0  0  0  0
    0.2093    1.2237    1.6539 F   0  0  0  0  0  0  0  0  0  0  0  0
   -0.2494    1.0684   -0.4720 F   0  0  0  0  0  0  0  0  0  0  0  0
    1.2776   -0.5330    0.4456 C   0  0  0  0  0  0  0  0  0  0  0  0
    1.0770   -1.4202   -0.5634 F   0  0  0  0  0  0  0  0  0  0  0  0
    1.5332   -1.2537    1.5670 F   0  0  0  0  0  0  0  0  0  0  0  0
    2.4032    0.2486    0.1131 O   0  0  0  0  0  0  0  0  0  0  0  0
    3.5640   -0.5025    0.3124 C   0  0  0  0  0  0  0  0  0  0  0  0
    3.8607   -0.5555    1.6243 F   0  0  0  0  0  0  0  0  0  0  0  0
    4.5806    0.1193   -0.3211 F   0  0  0  0  0  0  0  0  0  0  0  0
    3.4569   -1.7469   -0.1851 F   0  0  0  0  0  0  0  0  0  0  0  0
  1  2  2  0
  2  3  1  0
  2  4  1  0
  4  5  1  0
  4  6  1  0
  4  7  1  0
  7  8  1  0
  8  9  1  0
  8 10  1  0
  8 11  1  0
 11 12  1  0
 11 13  1  0
 11 14  1  0
 14 15  1  0
 15 16  1  0
 15 17  1  0
 15 18  1  0
M  END
$$$$
