
     RDKit          3D

 14 14  0  0  0  0  0  0  0  0999 V2000
    3.4124   -1.1719   -0.7420 F   0  0  0  0  0  0  0  0  0  0  0  0
    2.9163   -0.1771    0.0456 C   0  0  0  0  0  0  0  0  0  0  0  0
    3.3813   -0.4256    1.3005 F   0  0  0  0  0  0  0  0  0  0  0  0
    3.5360    0.9647   -0.3647 F   0  0  0  0  0  0  0  0  0  0  0  0
    1.4099   -0.0819    0.0010 C   0  0  0  0  0  0  0  0  0  0  0  0
    0.6288   -1.2271   -0.2139 C   0  0  0  0  0  0  0  0  0  0  0  0
   -0.7659   -1.1426   -0.2340 C   0  0  0  0  0  0  0  0  0  0  0  0
   -1.4090    0.0888   -0.0398 C   0  0  0  0  0  0  0  0  0  0  0  0
   -2.9164    0.1759   -0.0387 C   0  0  0  0  0  0  0  0  0  0  0  0
   -3.4444   -0.0202    1.2005 F   0  0  0  0  0  0  0  0  0  0  0  0
   -3.3821    1.3857   -0.4576 F   0  0  0  0  0  0  0  0  0  0  0  0
   -3.5054   -0.7485   -0.8478 F   0  0  0  0  0  0  0  0  0  0  0  0
   -0.6283    1.2309    0.1930 C   0  0  0  0  0  0  0  0  0  0  0  0
    0.7664    1.1464    0.2131 C   0  0  0  0  0  0  0  0  0  0  0  0
  1  2  1  0
  2  3  1  0
  2  4  1  0
  2  5  1  0
  5  6  2  0
  6  7  1  0
  7  8  2  0
  8  9  1  0
  9 10  1  0
  9 11  1  0
  9 12  1  0
  8 13  1  0
 13 14  2  0
 14  5  1  0
M  END
$$$$
