
     RDKit          3D

  6  5  0  0  0  0  0  0  0  0999 V2000
   -1.6112   -0.1839   -0.2668 C   0  0  0  0  0  0  0  0  0  0  0  0
   -0.5887    0.2360    0.7698 C   0  0  0  0  0  0  0  0  0  0  0  0
    0.6949    0.7019    0.1144 C   0  0  0  0  0  0  0  0  0  0  0  0
    0.9137    1.9026   -0.0497 O   0  0  0  0  0  0  0  0  0  0  0  0
    1.6526   -0.3788   -0.3413 C   0  0  0  0  0  0  0  0  0  0  0  0
    2.8224    0.1197   -0.8306 F   0  0  0  0  0  0  0  0  0  0  0  0
  1  2  1  0
  2  3  1  0
  3  4  2  0
  3  5  1  0
  5  6  1  0
M  END
$$$$
