
     RDKit          3D

  8  8  0  0  0  0  0  0  0  0999 V2000
   -2.5030    0.6602    0.3877 F   0  0  0  0  0  0  0  0  0  0  0  0
   -1.2475    0.2441    0.1846 C   0  0  0  0  0  0  0  0  0  0  0  0
   -0.2137    1.1631    0.0810 C   0  0  0  0  0  0  0  0  0  0  0  0
    1.0801    0.6928   -0.1304 C   0  0  0  0  0  0  0  0  0  0  0  0
    1.2767   -0.6775   -0.2280 C   0  0  0  0  0  0  0  0  0  0  0  0
    2.5220   -1.1294   -0.4314 F   0  0  0  0  0  0  0  0  0  0  0  0
    0.2879   -1.5931   -0.1307 N   0  0  0  0  0  0  0  0  0  0  0  0
   -0.9589   -1.1062    0.0747 C   0  0  0  0  0  0  0  0  0  0  0  0
  1  2  1  0
  2  3  2  0
  3  4  1  0
  4  5  2  0
  5  6  1  0
  5  7  1  0
  7  8  2  0
  8  2  1  0
M  END
$$$$
