
     RDKit          3D

  8  7  0  0  0  0  0  0  0  0999 V2000
   -2.3055    0.4153    0.4509 C   0  0  0  0  0  0  0  0  0  0  0  0
   -1.1569   -0.3137   -0.2184 C   0  0  0  0  0  0  0  0  0  0  0  0
    0.0705    0.2186    0.2947 O   0  0  0  0  0  0  0  0  0  0  0  0
    1.1980   -0.3623   -0.2116 C   0  0  0  0  0  0  0  0  0  0  0  0
    1.1907   -1.2466   -1.0621 O   0  0  0  0  0  0  0  0  0  0  0  0
    2.4455    0.2585    0.3843 C   0  0  0  0  0  0  0  0  0  0  0  0
    2.1972    1.1686    1.3691 F   0  0  0  0  0  0  0  0  0  0  0  0
    3.5415   -1.1752    1.1087 Br  0  0  0  0  0  0  0  0  0  0  0  0
  1  2  1  0
  2  3  1  0
  3  4  1  0
  4  5  2  0
  4  6  1  0
  6  7  1  0
  6  8  1  0
M  END
$$$$
