
     RDKit          3D

 10 10  0  0  0  0  0  0  0  0999 V2000
    2.5881    0.0751   -1.4886 F   0  0  0  0  0  0  0  0  0  0  0  0
    2.1916   -0.0698   -0.1939 C   0  0  0  0  0  0  0  0  0  0  0  0
    2.8302    0.9114    0.5039 F   0  0  0  0  0  0  0  0  0  0  0  0
    2.7378   -1.2426    0.2346 F   0  0  0  0  0  0  0  0  0  0  0  0
    0.6914   -0.0242   -0.0440 C   0  0  0  0  0  0  0  0  0  0  0  0
   -0.0715   -1.1985   -0.1415 C   0  0  0  0  0  0  0  0  0  0  0  0
   -1.4616   -1.1522   -0.0237 C   0  0  0  0  0  0  0  0  0  0  0  0
   -2.1037    0.0670    0.1857 C   0  0  0  0  0  0  0  0  0  0  0  0
   -1.3590    1.2417    0.2756 C   0  0  0  0  0  0  0  0  0  0  0  0
    0.0313    1.1981    0.1581 C   0  0  0  0  0  0  0  0  0  0  0  0
  1  2  1  0
  2  3  1  0
  2  4  1  0
  2  5  1  0
  5  6  2  0
  6  7  1  0
  7  8  2  0
  8  9  1  0
  9 10  2  0
 10  5  1  0
M  END
$$$$
