
     RDKit          3D

 10  9  0  0  0  0  0  0  0  0999 V2000
    2.9741    0.6264    1.2753 C   0  0  0  0  0  0  0  0  0  0  0  0
    1.8973   -0.0577    0.4469 C   0  0  0  0  0  0  0  0  0  0  0  0
    1.0885    0.9577   -0.3641 C   0  0  0  0  0  0  0  0  0  0  0  0
    0.0507    0.3122   -1.2881 C   0  0  0  0  0  0  0  0  0  0  0  0
   -1.0616   -0.3748   -0.5469 C   0  0  0  0  0  0  0  0  0  0  0  0
   -2.3394    0.0449   -0.5521 C   0  0  0  0  0  0  0  0  0  0  0  0
   -3.4819   -0.6041    0.1558 C   0  0  0  0  0  0  0  0  0  0  0  0
   -3.1161   -1.7127    0.8453 F   0  0  0  0  0  0  0  0  0  0  0  0
   -4.4495   -0.9780   -0.7168 F   0  0  0  0  0  0  0  0  0  0  0  0
   -4.0550    0.2463    1.0421 F   0  0  0  0  0  0  0  0  0  0  0  0
  1  2  1  0
  2  3  1  0
  3  4  1  0
  4  5  1  0
  5  6  2  0
  6  7  1  0
  7  8  1  0
  7  9  1  0
  7 10  1  0
M  END
$$$$
