
     RDKit          3D

  7  6  0  0  0  0  0  0  0  0999 V2000
    1.3255    1.4112    0.1301 O   0  0  0  0  0  0  0  0  0  0  0  0
    0.8679    0.2709    0.0555 C   0  0  0  0  0  0  0  0  0  0  0  0
    1.8389   -1.1850    0.0352 Cl  0  0  0  0  0  0  0  0  0  0  0  0
   -0.6231   -0.0400   -0.0323 C   0  0  0  0  0  0  0  0  0  0  0  0
   -0.9489   -0.7071   -1.1767 F   0  0  0  0  0  0  0  0  0  0  0  0
   -1.0530   -0.8243    0.9978 F   0  0  0  0  0  0  0  0  0  0  0  0
   -1.4073    1.0743   -0.0096 F   0  0  0  0  0  0  0  0  0  0  0  0
  1  2  2  0
  2  3  1  0
  2  4  1  0
  4  5  1  0
  4  6  1  0
  4  7  1  0
M  END
$$$$
