
     RDKit          3D

 10 10  0  0  0  0  0  0  0  0999 V2000
   -2.1385    1.4991   -0.1002 F   0  0  0  0  0  0  0  0  0  0  0  0
   -1.0935    0.6630   -0.0524 C   0  0  0  0  0  0  0  0  0  0  0  0
    0.1940    1.1725    0.0232 C   0  0  0  0  0  0  0  0  0  0  0  0
    1.2484    0.2730    0.0709 C   0  0  0  0  0  0  0  0  0  0  0  0
    2.5066    0.7257    0.1442 F   0  0  0  0  0  0  0  0  0  0  0  0
    0.9781   -1.0912    0.0415 C   0  0  0  0  0  0  0  0  0  0  0  0
    2.0035   -1.9540    0.0880 F   0  0  0  0  0  0  0  0  0  0  0  0
   -0.2670   -1.6135   -0.0319 N   0  0  0  0  0  0  0  0  0  0  0  0
   -1.2771   -0.7157   -0.0772 C   0  0  0  0  0  0  0  0  0  0  0  0
   -2.5254   -1.2000   -0.1503 F   0  0  0  0  0  0  0  0  0  0  0  0
  1  2  1  0
  2  3  2  0
  3  4  1  0
  4  5  1  0
  4  6  2  0
  6  7  1  0
  6  8  1  0
  8  9  2  0
  9 10  1  0
  9  2  1  0
M  END
$$$$
