
     RDKit          3D

  7  6  0  0  0  0  0  0  0  0999 V2000
   -1.6859    0.9606    0.5256 O   0  0  0  0  0  0  0  0  0  0  0  0
   -0.8842   -0.2148    0.4483 C   0  0  0  0  0  0  0  0  0  0  0  0
    0.5076    0.1523    0.0425 C   0  0  0  0  0  0  0  0  0  0  0  0
    1.0859    1.1733    0.7251 F   0  0  0  0  0  0  0  0  0  0  0  0
    1.2347   -0.4220   -0.9242 C   0  0  0  0  0  0  0  0  0  0  0  0
    2.4828    0.0467   -1.1514 F   0  0  0  0  0  0  0  0  0  0  0  0
    0.6812   -1.7406   -1.8845 Cl  0  0  0  0  0  0  0  0  0  0  0  0
  1  2  1  0
  2  3  1  0
  3  4  1  0
  3  5  2  0
  5  6  1  0
  5  7  1  0
M  END
$$$$
