
     RDKit          3D

 12 12  0  0  0  0  0  0  0  0999 V2000
   -1.9976   -0.6781   -2.1760 O   0  0  0  0  0  0  0  0  0  0  0  0
   -1.7691    0.4456   -1.2017 S   0  0  0  0  0  4  0  0  0  0  0  0
   -0.1124    0.1940   -0.5284 C   0  0  0  0  0  0  0  0  0  0  0  0
    0.6062   -0.9734   -0.8098 C   0  0  0  0  0  0  0  0  0  0  0  0
    1.8895   -1.1528   -0.2906 C   0  0  0  0  0  0  0  0  0  0  0  0
    2.4645   -0.1641    0.5058 C   0  0  0  0  0  0  0  0  0  0  0  0
    1.7600    1.0069    0.7807 C   0  0  0  0  0  0  0  0  0  0  0  0
    0.4762    1.1889    0.2622 C   0  0  0  0  0  0  0  0  0  0  0  0
   -2.6901    0.1435    0.3309 C   0  0  0  0  0  0  0  0  0  0  0  0
   -2.3885   -1.0457    0.9106 F   0  0  0  0  0  0  0  0  0  0  0  0
   -2.4467    1.1108    1.2561 F   0  0  0  0  0  0  0  0  0  0  0  0
   -4.0320    0.1522    0.1169 F   0  0  0  0  0  0  0  0  0  0  0  0
  1  2  2  0
  2  3  1  0
  3  4  2  0
  4  5  1  0
  5  6  2  0
  6  7  1  0
  7  8  2  0
  2  9  1  0
  9 10  1  0
  9 11  1  0
  9 12  1  0
  8  3  1  0
M  END
$$$$
