
     RDKit          3D

  8  7  0  0  0  0  0  0  0  0999 V2000
   -1.5860    0.0837   -0.5251 C   0  0  0  0  0  0  0  0  0  0  0  0
   -0.6983   -0.6630    0.4364 C   0  0  0  0  0  0  0  0  0  0  0  0
   -1.0370   -1.7602    0.8834 O   0  0  0  0  0  0  0  0  0  0  0  0
    0.5889   -0.0236    0.8739 C   0  0  0  0  0  0  0  0  0  0  0  0
    1.4568    0.2700   -0.3117 C   0  0  0  0  0  0  0  0  0  0  0  0
    2.6783    0.6867    0.0926 F   0  0  0  0  0  0  0  0  0  0  0  0
    0.9337    1.2553   -1.0735 F   0  0  0  0  0  0  0  0  0  0  0  0
    1.6342   -0.8125   -1.0944 F   0  0  0  0  0  0  0  0  0  0  0  0
  1  2  1  0
  2  3  2  0
  2  4  1  0
  4  5  1  0
  5  6  1  0
  5  7  1  0
  5  8  1  0
M  END
$$$$
