
     RDKit          3D

  6  5  0  0  0  0  0  0  0  0999 V2000
   -1.4052   -1.0888   -0.3581 F   0  0  0  0  0  0  0  0  0  0  0  0
   -0.7543    0.0531   -0.0274 C   0  0  0  0  0  0  0  0  0  0  0  0
   -1.2199    0.4419    1.1793 F   0  0  0  0  0  0  0  0  0  0  0  0
   -1.1046    0.9888   -0.9361 F   0  0  0  0  0  0  0  0  0  0  0  0
    0.7401   -0.1887   -0.0084 C   0  0  0  0  0  0  0  0  0  0  0  0
    1.6667    1.2744    0.4203 Cl  0  0  0  0  0  0  0  0  0  0  0  0
  1  2  1  0
  2  3  1  0
  2  4  1  0
  2  5  1  0
  5  6  1  0
M  END
$$$$
