
     RDKit          3D

 26 26  0  0  0  0  0  0  0  0999 V2000
    1.7021   -3.2767    1.4297 F   0  0  0  0  0  0  0  0  0  0  0  0
    2.1173   -2.2531    0.6328 C   0  0  0  0  0  0  0  0  0  0  0  0
    2.5927   -2.8327   -0.4981 F   0  0  0  0  0  0  0  0  0  0  0  0
    3.1748   -1.6962    1.2771 F   0  0  0  0  0  0  0  0  0  0  0  0
    1.0106   -1.2448    0.3458 C   0  0  0  0  0  0  0  0  0  0  0  0
   -0.3210   -1.6351    0.5730 C   0  0  0  0  0  0  0  0  0  0  0  0
   -1.4067   -0.7729    0.3381 C   0  0  0  0  0  0  0  0  0  0  0  0
   -2.8131   -1.2906    0.6172 C   0  0  0  0  0  0  0  0  0  0  0  0
   -3.4646   -1.6502   -0.5173 F   0  0  0  0  0  0  0  0  0  0  0  0
   -2.8182   -2.3943    1.4154 F   0  0  0  0  0  0  0  0  0  0  0  0
   -3.5873   -0.3761    1.2557 F   0  0  0  0  0  0  0  0  0  0  0  0
   -1.1580    0.5380   -0.1427 C   0  0  0  0  0  0  0  0  0  0  0  0
   -2.3296    1.4621   -0.4866 C   0  0  0  0  0  0  0  0  0  0  0  0
   -2.0445    2.3047   -1.5135 F   0  0  0  0  0  0  0  0  0  0  0  0
   -3.4382    0.7921   -0.8925 F   0  0  0  0  0  0  0  0  0  0  0  0
   -2.7032    2.2275    0.5669 F   0  0  0  0  0  0  0  0  0  0  0  0
    0.1937    0.9874   -0.2896 C   0  0  0  0  0  0  0  0  0  0  0  0
    0.4827    2.4627   -0.5980 C   0  0  0  0  0  0  0  0  0  0  0  0
   -0.4487    3.3009   -0.0730 F   0  0  0  0  0  0  0  0  0  0  0  0
    0.5352    2.7102   -1.9281 F   0  0  0  0  0  0  0  0  0  0  0  0
    1.6576    2.8897   -0.0664 F   0  0  0  0  0  0  0  0  0  0  0  0
    1.2762    0.0628   -0.1350 C   0  0  0  0  0  0  0  0  0  0  0  0
    2.7114    0.4780   -0.4706 C   0  0  0  0  0  0  0  0  0  0  0  0
    2.7704    1.3647   -1.4983 F   0  0  0  0  0  0  0  0  0  0  0  0
    3.3390    1.0480    0.5861 F   0  0  0  0  0  0  0  0  0  0  0  0
    3.4891   -0.5602   -0.8705 F   0  0  0  0  0  0  0  0  0  0  0  0
  1  2  1  0
  2  3  1  0
  2  4  1  0
  2  5  1  0
  5  6  2  0
  6  7  1  0
  7  8  1  0
  8  9  1  0
  8 10  1  0
  8 11  1  0
  7 12  2  0
 12 13  1  0
 13 14  1  0
 13 15  1  0
 13 16  1  0
 12 17  1  0
 17 18  1  0
 18 19  1  0
 18 20  1  0
 18 21  1  0
 17 22  2  0
 22 23  1  0
 23 24  1  0
 23 25  1  0
 23 26  1  0
 22  5  1  0
M  END
$$$$
