
     RDKit          3D

 12 11  0  0  0  0  0  0  0  0999 V2000
    2.3291   -0.4320   -0.1400 C   0  0  0  0  0  0  0  0  0  0  0  0
    1.5422    0.7470   -0.1847 O   0  0  0  0  0  0  0  0  0  0  0  0
    0.2454    0.5845    0.3938 C   0  0  0  0  0  0  0  0  0  0  0  0
    0.3626   -0.2127    1.4865 F   0  0  0  0  0  0  0  0  0  0  0  0
   -0.1014    1.8113    0.8624 F   0  0  0  0  0  0  0  0  0  0  0  0
   -0.8047    0.0603   -0.5740 C   0  0  0  0  0  0  0  0  0  0  0  0
   -0.4665   -1.1818   -1.0334 F   0  0  0  0  0  0  0  0  0  0  0  0
   -0.8855    0.8537   -1.6823 F   0  0  0  0  0  0  0  0  0  0  0  0
   -2.1314    0.0106    0.1460 C   0  0  0  0  0  0  0  0  0  0  0  0
   -2.1029   -0.8069    1.2253 F   0  0  0  0  0  0  0  0  0  0  0  0
   -2.5422    1.2255    0.5764 F   0  0  0  0  0  0  0  0  0  0  0  0
   -3.1113   -0.4620   -0.6677 F   0  0  0  0  0  0  0  0  0  0  0  0
  1  2  1  0
  2  3  1  0
  3  4  1  0
  3  5  1  0
  3  6  1  0
  6  7  1  0
  6  8  1  0
  6  9  1  0
  9 10  1  0
  9 11  1  0
  9 12  1  0
M  END
$$$$
