
     RDKit          3D

 12 12  0  0  0  0  0  0  0  0999 V2000
   -0.4543    2.4356   -0.4815 O   0  0  0  0  0  0  0  0  0  0  0  0
   -0.2394    1.1081   -0.2347 C   0  0  0  0  0  0  0  0  0  0  0  0
    0.9375    0.6844    0.3764 C   0  0  0  0  0  0  0  0  0  0  0  0
    1.8601    1.5945    0.7211 F   0  0  0  0  0  0  0  0  0  0  0  0
    1.1530   -0.6656    0.6258 C   0  0  0  0  0  0  0  0  0  0  0  0
    2.2886   -1.0653    1.2145 F   0  0  0  0  0  0  0  0  0  0  0  0
    0.1890   -1.5981    0.2635 C   0  0  0  0  0  0  0  0  0  0  0  0
    0.3948   -2.9007    0.5032 F   0  0  0  0  0  0  0  0  0  0  0  0
   -0.9884   -1.1814   -0.3471 C   0  0  0  0  0  0  0  0  0  0  0  0
   -1.9165   -2.0835   -0.6954 F   0  0  0  0  0  0  0  0  0  0  0  0
   -1.2034    0.1704   -0.5965 C   0  0  0  0  0  0  0  0  0  0  0  0
   -2.3415    0.5640   -1.1857 F   0  0  0  0  0  0  0  0  0  0  0  0
  1  2  1  0
  2  3  2  0
  3  4  1  0
  3  5  1  0
  5  6  1  0
  5  7  2  0
  7  8  1  0
  7  9  1  0
  9 10  1  0
  9 11  2  0
 11 12  1  0
 11  2  1  0
M  END
$$$$
