
     RDKit          3D

  7  6  0  0  0  0  0  0  0  0999 V2000
    1.5914    1.0794    0.0400 O   0  0  0  0  0  0  0  0  0  0  0  0
    0.8928    0.0727    0.0601 C   0  0  0  0  0  0  0  0  0  0  0  0
    1.5459   -1.0961    0.1913 F   0  0  0  0  0  0  0  0  0  0  0  0
   -0.6167    0.0110   -0.0460 C   0  0  0  0  0  0  0  0  0  0  0  0
   -1.0249   -0.7308   -1.1148 F   0  0  0  0  0  0  0  0  0  0  0  0
   -1.1838   -0.5679    1.0505 F   0  0  0  0  0  0  0  0  0  0  0  0
   -1.2047    1.2318   -0.1811 F   0  0  0  0  0  0  0  0  0  0  0  0
  1  2  2  0
  2  3  1  0
  2  4  1  0
  4  5  1  0
  4  6  1  0
  4  7  1  0
M  END
$$$$
