
     RDKit          3D

 15 14  0  0  0  0  0  0  0  0999 V2000
   -1.2195    2.0997   -0.3919 O   0  0  0  0  0  0  0  0  0  0  0  0
   -1.2732    1.0179    0.5749 S   0  0  0  0  0  6  0  0  0  0  0  0
   -1.6344    1.3284    1.9504 O   0  0  0  0  0  0  0  0  0  0  0  0
    0.1921    0.3539    0.6486 O   0  0  0  0  0  0  0  0  0  0  0  0
    0.8855   -0.4539   -0.5572 S   0  0  0  0  0  6  0  0  0  0  0  0
    0.6071   -1.8584   -0.3194 O   0  0  0  0  0  0  0  0  0  0  0  0
    0.4915    0.1582   -1.8104 O   0  0  0  0  0  0  0  0  0  0  0  0
    2.6253   -0.0427   -0.1509 C   0  0  0  0  0  0  0  0  0  0  0  0
    2.8488    1.3017   -0.1621 F   0  0  0  0  0  0  0  0  0  0  0  0
    3.5103   -0.5976   -1.0243 F   0  0  0  0  0  0  0  0  0  0  0  0
    2.9742   -0.4791    1.0931 F   0  0  0  0  0  0  0  0  0  0  0  0
   -2.2873   -0.4108   -0.0335 C   0  0  0  0  0  0  0  0  0  0  0  0
   -2.0872   -1.5221    0.7283 F   0  0  0  0  0  0  0  0  0  0  0  0
   -3.6223   -0.1397    0.0183 F   0  0  0  0  0  0  0  0  0  0  0  0
   -2.0110   -0.7555   -1.3181 F   0  0  0  0  0  0  0  0  0  0  0  0
  1  2  2  0
  2  3  2  0
  2  4  1  0
  4  5  1  0
  5  6  2  0
  5  7  2  0
  5  8  1  0
  8  9  1  0
  8 10  1  0
  8 11  1  0
  2 12  1  0
 12 13  1  0
 12 14  1  0
 12 15  1  0
M  END
$$$$
