
     RDKit          3D

  7  7  0  0  0  0  0  0  0  0999 V2000
    1.5592    1.9920    0.2410 O   0  0  0  0  0  0  0  0  0  0  0  0
    0.8041    1.0331    0.1299 C   0  0  0  0  0  0  0  0  0  0  0  0
    1.2420   -0.3965    0.3249 C   0  0  0  0  0  0  0  0  0  0  0  0
   -0.0891   -1.1390    0.3214 C   0  0  0  0  0  0  0  0  0  0  0  0
   -0.9832   -0.3123   -0.5951 C   0  0  0  0  0  0  0  0  0  0  0  0
   -0.6637    1.1275   -0.2159 C   0  0  0  0  0  0  0  0  0  0  0  0
   -1.4161    1.4762    0.8623 F   0  0  0  0  0  0  0  0  0  0  0  0
  1  2  2  0
  2  3  1  0
  3  4  1  0
  4  5  1  0
  5  6  1  0
  6  7  1  0
  6  2  1  0
M  END
$$$$
