
     RDKit          3D

  6  5  0  0  0  0  0  0  0  0999 V2000
   -2.3434   -0.3675   -1.1022 F   0  0  0  0  0  0  0  0  0  0  0  0
   -1.3599   -0.3496   -0.1797 C   0  0  0  0  0  0  0  0  0  0  0  0
   -1.5712   -0.8864    1.0391 F   0  0  0  0  0  0  0  0  0  0  0  0
   -0.1844    0.2068   -0.4820 C   0  0  0  0  0  0  0  0  0  0  0  0
    0.9660    0.2978    0.4670 C   0  0  0  0  0  0  0  0  0  0  0  0
    2.6070   -0.8064   -0.3216 I   0  0  0  0  0  0  0  0  0  0  0  0
  1  2  1  0
  2  3  1  0
  2  4  2  3
  4  5  1  0
  5  6  1  0
M  END
$$$$
