
     RDKit          3D

 12 11  0  0  0  0  0  0  0  0999 V2000
   -0.5415   -1.9556    0.1933 O   0  0  0  0  0  0  0  0  0  0  0  0
   -0.4404   -0.5211   -0.0112 S   0  0  0  0  0  6  0  0  0  0  0  0
   -0.1787    0.0148   -1.3348 O   0  0  0  0  0  0  0  0  0  0  0  0
    0.6872    0.0262    1.0048 O   0  0  0  0  0  0  0  0  0  0  0  0
    1.9693    0.0711    0.4776 C   0  0  0  0  0  0  0  0  0  0  0  0
    2.2803   -1.0550   -0.1869 F   0  0  0  0  0  0  0  0  0  0  0  0
    2.1042    1.1400   -0.3283 F   0  0  0  0  0  0  0  0  0  0  0  0
    2.8397    0.2111    1.5009 F   0  0  0  0  0  0  0  0  0  0  0  0
   -1.8793    0.3336    0.7383 C   0  0  0  0  0  0  0  0  0  0  0  0
   -2.0778   -0.0337    2.0370 F   0  0  0  0  0  0  0  0  0  0  0  0
   -1.7201    1.6889    0.7454 F   0  0  0  0  0  0  0  0  0  0  0  0
   -3.0429    0.0796    0.0769 F   0  0  0  0  0  0  0  0  0  0  0  0
  1  2  2  0
  2  3  2  0
  2  4  1  0
  4  5  1  0
  5  6  1  0
  5  7  1  0
  5  8  1  0
  2  9  1  0
  9 10  1  0
  9 11  1  0
  9 12  1  0
M  END
$$$$
