
     RDKit          3D

 13 12  0  0  0  0  0  0  0  0999 V2000
   -4.5804   -0.9054    0.3953 C   0  0  0  0  0  0  0  0  0  0  0  0
   -3.8507    0.2065    1.1330 C   0  0  0  0  0  0  0  0  0  0  0  0
   -2.5604    0.6536    0.4427 C   0  0  0  0  0  0  0  0  0  0  0  0
   -1.4811   -0.4309    0.4134 C   0  0  0  0  0  0  0  0  0  0  0  0
   -0.1782    0.1000   -0.1906 C   0  0  0  0  0  0  0  0  0  0  0  0
    0.9010   -0.9872   -0.2242 C   0  0  0  0  0  0  0  0  0  0  0  0
    2.1894   -0.4883   -0.8226 C   0  0  0  0  0  0  0  0  0  0  0  0
    2.5680   -0.7916   -2.0690 C   0  0  0  0  0  0  0  0  0  0  0  0
    1.8018   -1.5461   -2.8800 F   0  0  0  0  0  0  0  0  0  0  0  0
    3.0622    0.3333    0.0562 C   0  0  0  0  0  0  0  0  0  0  0  0
    2.8011    0.5671    1.2272 O   0  0  0  0  0  0  0  0  0  0  0  0
    4.1584    0.7833   -0.6064 O   0  0  0  0  0  0  0  0  0  0  0  0
    5.0302    1.5862    0.1912 C   0  0  0  0  0  0  0  0  0  0  0  0
  1  2  1  0
  2  3  1  0
  3  4  1  0
  4  5  1  0
  5  6  1  0
  6  7  1  0
  7  8  2  0
  8  9  1  0
  7 10  1  0
 10 11  2  0
 10 12  1  0
 12 13  1  0
M  END
$$$$
