
     RDKit          3D

  3  2  0  0  0  0  0  0  0  0999 V2000
   -0.7997    1.0824   -0.1273 F   0  0  0  0  0  0  0  0  0  0  0  0
   -0.1028   -0.0737    0.0098 C   0  0  0  0  0  0  0  0  0  0  0  0
    1.6284    0.2642   -0.0437 Cl  0  0  0  0  0  0  0  0  0  0  0  0
  1  2  1  0
  2  3  1  0
M  END
$$$$
