
     RDKit          3D

  7  6  0  0  0  0  0  0  0  0999 V2000
   -1.2875    0.0520    0.2877 C   0  0  0  0  0  0  0  0  0  0  0  0
   -0.0601   -0.2602   -0.5483 C   0  0  0  0  0  0  0  0  0  0  0  0
   -0.1951    0.3649   -1.7545 F   0  0  0  0  0  0  0  0  0  0  0  0
   -0.0695   -1.5943   -0.8383 F   0  0  0  0  0  0  0  0  0  0  0  0
    1.2953    0.1128    0.0636 C   0  0  0  0  0  0  0  0  0  0  0  0
    1.6215   -0.7605    1.5914 Cl  0  0  0  0  0  0  0  0  0  0  0  0
    1.4527    1.8707    0.3610 Cl  0  0  0  0  0  0  0  0  0  0  0  0
  1  2  1  0
  2  3  1  0
  2  4  1  0
  2  5  1  0
  5  6  1  0
  5  7  1  0
M  END
$$$$
