
     RDKit          3D

 22 21  0  0  0  0  0  0  0  0999 V2000
   -7.4993    0.6170   -1.3883 C   0  0  0  0  0  0  0  0  0  0  0  0
   -6.8188   -0.3506   -0.4331 C   0  0  0  0  0  0  0  0  0  0  0  0
   -5.3045   -0.1388   -0.4055 C   0  0  0  0  0  0  0  0  0  0  0  0
   -4.6267   -1.1132    0.5604 C   0  0  0  0  0  0  0  0  0  0  0  0
   -3.0974   -1.0197    0.5448 C   0  0  0  0  0  0  0  0  0  0  0  0
   -2.5683    0.3235    1.0543 C   0  0  0  0  0  0  0  0  0  0  0  0
   -1.0492    0.3397    1.2529 C   0  0  0  0  0  0  0  0  0  0  0  0
   -0.2647    0.1838   -0.0518 C   0  0  0  0  0  0  0  0  0  0  0  0
    1.2416    0.3190    0.1880 C   0  0  0  0  0  0  0  0  0  0  0  0
    2.0267    0.1557   -1.1154 C   0  0  0  0  0  0  0  0  0  0  0  0
    3.5325    0.3892   -0.9512 C   0  0  0  0  0  0  0  0  0  0  0  0
    4.2081   -0.6428   -0.0467 C   0  0  0  0  0  0  0  0  0  0  0  0
    5.7372   -0.6177   -0.0882 C   0  0  0  0  0  0  0  0  0  0  0  0
    6.1674   -1.6561    0.6860 F   0  0  0  0  0  0  0  0  0  0  0  0
    6.1366   -0.9147   -1.3547 F   0  0  0  0  0  0  0  0  0  0  0  0
    6.3728    0.6781    0.3848 C   0  0  0  0  0  0  0  0  0  0  0  0
    5.9111    0.9926    1.6318 F   0  0  0  0  0  0  0  0  0  0  0  0
    5.9995    1.7174   -0.4176 F   0  0  0  0  0  0  0  0  0  0  0  0
    7.8834    0.5434    0.3942 C   0  0  0  0  0  0  0  0  0  0  0  0
    8.4720    1.6960    0.8083 F   0  0  0  0  0  0  0  0  0  0  0  0
    8.3162   -0.4297    1.2297 F   0  0  0  0  0  0  0  0  0  0  0  0
    8.3879    0.2725   -0.8325 F   0  0  0  0  0  0  0  0  0  0  0  0
  1  2  1  0
  2  3  1  0
  3  4  1  0
  4  5  1  0
  5  6  1  0
  6  7  1  0
  7  8  1  0
  8  9  1  0
  9 10  1  0
 10 11  1  0
 11 12  1  0
 12 13  1  0
 13 14  1  0
 13 15  1  0
 13 16  1  0
 16 17  1  0
 16 18  1  0
 16 19  1  0
 19 20  1  0
 19 21  1  0
 19 22  1  0
M  END
$$$$
