
     RDKit          3D

  3  2  0  0  0  0  0  0  0  0999 V2000
   -0.6510    0.2143   -0.1754 C   0  0  0  0  0  0  0  0  0  0  0  0
    0.6025   -0.1032    0.1376 C   0  0  0  0  0  0  0  0  0  0  0  0
    0.9340   -1.3483    0.5222 F   0  0  0  0  0  0  0  0  0  0  0  0
  1  2  2  0
  2  3  1  0
M  END
$$$$
