
     RDKit          3D

 13 12  0  0  0  0  0  0  0  0999 V2000
   -1.2199    1.5290    0.5046 C   0  0  0  0  0  0  0  0  0  0  0  0
   -1.0221    0.3584   -0.4629 C   0  0  0  0  0  0  0  0  0  0  0  0
   -1.9285   -0.8081   -0.0669 C   0  0  0  0  0  0  0  0  0  0  0  0
   -1.5033    0.8174   -1.7473 O   0  0  0  0  0  0  0  0  0  0  0  0
    0.4721   -0.0515   -0.5849 C   0  0  0  0  0  0  0  0  0  0  0  0
    0.5742   -1.0585   -1.4930 F   0  0  0  0  0  0  0  0  0  0  0  0
    1.1266    1.0130   -1.1436 F   0  0  0  0  0  0  0  0  0  0  0  0
    1.1667   -0.4323    0.7054 C   0  0  0  0  0  0  0  0  0  0  0  0
    0.4970   -1.4390    1.3364 F   0  0  0  0  0  0  0  0  0  0  0  0
    2.5855   -0.8597    0.4157 C   0  0  0  0  0  0  0  0  0  0  0  0
    3.2267   -1.1584    1.5742 F   0  0  0  0  0  0  0  0  0  0  0  0
    3.2989    0.1283   -0.1698 F   0  0  0  0  0  0  0  0  0  0  0  0
    2.6614   -1.9502   -0.3730 F   0  0  0  0  0  0  0  0  0  0  0  0
  1  2  1  0
  2  3  1  0
  2  4  1  0
  2  5  1  0
  5  6  1  0
  5  7  1  0
  5  8  1  0
  8  9  1  0
  8 10  1  0
 10 11  1  0
 10 12  1  0
 10 13  1  0
M  END
$$$$
