
     RDKit          3D

  6  6  0  0  0  0  0  0  0  0999 V2000
    2.6399    0.2530    0.0012 F   0  0  0  0  0  0  0  0  0  0  0  0
    1.3016    0.1564   -0.0462 C   0  0  0  0  0  0  0  0  0  0  0  0
    0.5185    1.1436   -0.4811 C   0  0  0  0  0  0  0  0  0  0  0  0
   -0.9170    0.7422   -0.4363 C   0  0  0  0  0  0  0  0  0  0  0  0
   -0.8911   -0.5351    0.4095 C   0  0  0  0  0  0  0  0  0  0  0  0
    0.5463   -1.0568    0.3612 C   0  0  0  0  0  0  0  0  0  0  0  0
  1  2  1  0
  2  3  2  0
  3  4  1  0
  4  5  1  0
  5  6  1  0
  6  2  1  0
M  END
$$$$
