
     RDKit          3D

  4  3  0  0  0  0  0  0  0  0999 V2000
    1.6431   -0.6971   -0.0092 F   0  0  0  0  0  0  0  0  0  0  0  0
    0.6345    0.1924    0.0032 C   0  0  0  0  0  0  0  0  0  0  0  0
   -0.6345   -0.1924   -0.0032 C   0  0  0  0  0  0  0  0  0  0  0  0
   -1.6431    0.6971    0.0092 F   0  0  0  0  0  0  0  0  0  0  0  0
  1  2  1  0
  2  3  2  0
  3  4  1  0
M  END
$$$$
