
     RDKit          3D

  6  5  0  0  0  0  0  0  0  0999 V2000
    1.2362    0.2667   -0.2957 C   0  0  0  0  0  0  0  0  0  0  0  0
    0.0606   -0.0096    0.6263 C   0  0  0  0  0  0  0  0  0  0  0  0
   -1.2193   -0.2477   -0.1433 C   0  0  0  0  0  0  0  0  0  0  0  0
   -1.5511    0.8262   -0.8908 F   0  0  0  0  0  0  0  0  0  0  0  0
   -1.1079   -1.3117   -0.9664 F   0  0  0  0  0  0  0  0  0  0  0  0
   -2.2437   -0.4900    0.7040 F   0  0  0  0  0  0  0  0  0  0  0  0
  1  2  1  0
  2  3  1  0
  3  4  1  0
  3  5  1  0
  3  6  1  0
M  END
$$$$
