
     RDKit          3D

 18 18  0  0  0  0  0  0  0  0999 V2000
   -4.3581    1.2487   -0.1389 C   0  0  0  0  0  0  0  0  0  0  0  0
   -3.0452    0.5234   -0.1247 C   0  0  0  0  0  0  0  0  0  0  0  0
   -2.6349   -0.2226   -1.2348 C   0  0  0  0  0  0  0  0  0  0  0  0
   -1.4261   -0.9239   -1.2097 C   0  0  0  0  0  0  0  0  0  0  0  0
   -0.6111   -0.8894   -0.0748 C   0  0  0  0  0  0  0  0  0  0  0  0
    0.9130   -1.8116   -0.0710 S   0  0  0  0  0  0  0  0  0  0  0  0
    2.1182   -0.4373    0.0966 C   0  0  0  0  0  0  0  0  0  0  0  0
    1.9492    0.1445    1.3151 F   0  0  0  0  0  0  0  0  0  0  0  0
    1.8257    0.5177   -0.8266 F   0  0  0  0  0  0  0  0  0  0  0  0
    3.5517   -0.9123   -0.0681 C   0  0  0  0  0  0  0  0  0  0  0  0
    3.8591   -1.8697    0.8573 F   0  0  0  0  0  0  0  0  0  0  0  0
    3.7359   -1.5004   -1.2878 F   0  0  0  0  0  0  0  0  0  0  0  0
    4.4726    0.2774    0.0842 C   0  0  0  0  0  0  0  0  0  0  0  0
    5.7731   -0.0904   -0.0522 F   0  0  0  0  0  0  0  0  0  0  0  0
    4.3657    0.8659    1.2985 F   0  0  0  0  0  0  0  0  0  0  0  0
    4.2451    1.2351   -0.8446 F   0  0  0  0  0  0  0  0  0  0  0  0
   -1.0338   -0.1701    1.0459 C   0  0  0  0  0  0  0  0  0  0  0  0
   -2.2425    0.5316    1.0212 C   0  0  0  0  0  0  0  0  0  0  0  0
  1  2  1  0
  2  3  2  0
  3  4  1  0
  4  5  2  0
  5  6  1  0
  6  7  1  0
  7  8  1  0
  7  9  1  0
  7 10  1  0
 10 11  1  0
 10 12  1  0
 10 13  1  0
 13 14  1  0
 13 15  1  0
 13 16  1  0
  5 17  1  0
 17 18  2  0
 18  2  1  0
M  END
$$$$
