
     RDKit          3D

  8  7  0  0  0  0  0  0  0  0999 V2000
   -0.8627    0.0034    1.3733 C   0  0  0  0  0  0  0  0  0  0  0  0
   -0.3984   -0.1623   -0.0838 C   0  0  0  0  0  0  0  0  0  0  0  0
   -1.1039   -1.3966   -0.6804 C   0  0  0  0  0  0  0  0  0  0  0  0
   -0.8233    1.0757   -0.8918 C   0  0  0  0  0  0  0  0  0  0  0  0
    1.1312   -0.3776   -0.1590 C   0  0  0  0  0  0  0  0  0  0  0  0
    2.0040    0.7391    0.3848 C   0  0  0  0  0  0  0  0  0  0  0  0
    1.4548   -1.5204    0.5089 F   0  0  0  0  0  0  0  0  0  0  0  0
    1.4890   -0.5899   -1.4567 F   0  0  0  0  0  0  0  0  0  0  0  0
  1  2  1  0
  2  3  1  0
  2  4  1  0
  2  5  1  0
  5  6  1  0
  5  7  1  0
  5  8  1  0
M  END
$$$$
