
     RDKit          3D

 10  9  0  0  0  0  0  0  0  0999 V2000
    2.8311   -0.9423   -0.5551 F   0  0  0  0  0  0  0  0  0  0  0  0
    1.9457   -0.0162   -0.1307 C   0  0  0  0  0  0  0  0  0  0  0  0
    2.3905    1.1158    0.4553 F   0  0  0  0  0  0  0  0  0  0  0  0
    0.6349   -0.2226   -0.2918 C   0  0  0  0  0  0  0  0  0  0  0  0
    0.2376   -1.3715   -0.8842 F   0  0  0  0  0  0  0  0  0  0  0  0
   -0.2881    0.7074    0.1329 O   0  0  0  0  0  0  0  0  0  0  0  0
   -1.6066    0.2750   -0.1416 C   0  0  0  0  0  0  0  0  0  0  0  0
   -1.7946    0.1110   -1.4675 F   0  0  0  0  0  0  0  0  0  0  0  0
   -2.4689    1.2196    0.2931 F   0  0  0  0  0  0  0  0  0  0  0  0
   -1.8816   -0.8763    0.5057 F   0  0  0  0  0  0  0  0  0  0  0  0
  1  2  1  0
  2  3  1  0
  2  4  2  3
  4  5  1  0
  4  6  1  0
  6  7  1  0
  7  8  1  0
  7  9  1  0
  7 10  1  0
M  END
$$$$
