
     RDKit          3D

  9  8  0  0  0  0  0  0  0  0999 V2000
   -2.2540   -0.2721    0.8913 C   0  0  0  0  0  0  0  0  0  0  0  0
   -1.2296    0.0994   -0.1628 C   0  0  0  0  0  0  0  0  0  0  0  0
    0.0764   -0.0801    0.4001 O   0  0  0  0  0  0  0  0  0  0  0  0
    1.1097    0.2207   -0.4471 C   0  0  0  0  0  0  0  0  0  0  0  0
    0.9464    0.6136   -1.5990 O   0  0  0  0  0  0  0  0  0  0  0  0
    2.4542   -0.0008    0.2394 C   0  0  0  0  0  0  0  0  0  0  0  0
    2.3463   -0.4427    1.5262 F   0  0  0  0  0  0  0  0  0  0  0  0
    3.4082   -1.3466   -0.8037 Br  0  0  0  0  0  0  0  0  0  0  0  0
    3.3769    1.7190    0.2466 Br  0  0  0  0  0  0  0  0  0  0  0  0
  1  2  1  0
  2  3  1  0
  3  4  1  0
  4  5  2  0
  4  6  1  0
  6  7  1  0
  6  8  1  0
  6  9  1  0
M  END
$$$$
