
     RDKit          3D

  7  6  0  0  0  0  0  0  0  0999 V2000
   -2.2595   -0.4117    0.5049 C   0  0  0  0  0  0  0  0  0  0  0  0
   -1.1224    0.1766   -0.3074 C   0  0  0  0  0  0  0  0  0  0  0  0
    0.1068   -0.1119    0.3689 O   0  0  0  0  0  0  0  0  0  0  0  0
    1.2200    0.3616   -0.2543 C   0  0  0  0  0  0  0  0  0  0  0  0
    1.2182    0.9884   -1.3083 O   0  0  0  0  0  0  0  0  0  0  0  0
    2.4754    0.0231    0.5101 C   0  0  0  0  0  0  0  0  0  0  0  0
    2.2474   -0.6807    1.6581 F   0  0  0  0  0  0  0  0  0  0  0  0
  1  2  1  0
  2  3  1  0
  3  4  1  0
  4  5  2  0
  4  6  1  0
  6  7  1  0
M  END
$$$$
