
     RDKit          3D

 12 12  0  0  0  0  0  0  0  0999 V2000
    3.8351    1.3156    1.6164 F   0  0  0  0  0  0  0  0  0  0  0  0
    3.4475    0.4511    0.6470 C   0  0  0  0  0  0  0  0  0  0  0  0
    4.1803    0.7397   -0.4561 F   0  0  0  0  0  0  0  0  0  0  0  0
    3.8105   -0.7909    1.0525 F   0  0  0  0  0  0  0  0  0  0  0  0
    1.9892    0.5708    0.3720 C   0  0  0  0  0  0  0  0  0  0  0  0
    1.0913   -0.4204    0.5023 C   0  0  0  0  0  0  0  0  0  0  0  0
   -0.3411   -0.2778    0.2114 C   0  0  0  0  0  0  0  0  0  0  0  0
   -1.0263   -1.3596   -0.3568 C   0  0  0  0  0  0  0  0  0  0  0  0
   -2.3949   -1.2739   -0.6250 C   0  0  0  0  0  0  0  0  0  0  0  0
   -3.0945   -0.1095   -0.3167 C   0  0  0  0  0  0  0  0  0  0  0  0
   -2.4279    0.9671    0.2641 C   0  0  0  0  0  0  0  0  0  0  0  0
   -1.0589    0.8821    0.5317 C   0  0  0  0  0  0  0  0  0  0  0  0
  1  2  1  0
  2  3  1  0
  2  4  1  0
  2  5  1  0
  5  6  2  0
  6  7  1  0
  7  8  2  0
  8  9  1  0
  9 10  2  0
 10 11  1  0
 11 12  2  0
 12  7  1  0
M  END
$$$$
