
     RDKit          3D

 11 10  0  0  0  0  0  0  0  0999 V2000
    3.5763   -0.5150    0.9442 C   0  0  0  0  0  0  0  0  0  0  0  0
    2.4554    0.4995    1.0686 C   0  0  0  0  0  0  0  0  0  0  0  0
    1.5196    0.3356   -0.0073 O   0  0  0  0  0  0  0  0  0  0  0  0
    0.5278   -0.5893    0.1844 C   0  0  0  0  0  0  0  0  0  0  0  0
    0.4058   -1.2464    1.2156 O   0  0  0  0  0  0  0  0  0  0  0  0
   -0.4194   -0.6939   -1.0169 C   0  0  0  0  0  0  0  0  0  0  0  0
   -1.3921   -1.6315   -0.8297 F   0  0  0  0  0  0  0  0  0  0  0  0
    0.6611   -1.2548   -2.5533 Br  0  0  0  0  0  0  0  0  0  0  0  0
   -1.1998    0.9064   -1.4088 S   0  0  0  0  0  0  0  0  0  0  0  0
   -2.3550    1.0294   -0.0084 C   0  0  0  0  0  0  0  0  0  0  0  0
   -3.6727    0.3349   -0.3028 C   0  0  0  0  0  0  0  0  0  0  0  0
  1  2  1  0
  2  3  1  0
  3  4  1  0
  4  5  2  0
  4  6  1  0
  6  7  1  0
  6  8  1  0
  6  9  1  0
  9 10  1  0
 10 11  1  0
M  END
$$$$
