
     RDKit          3D

  7  7  0  0  0  0  0  0  0  0999 V2000
    2.3634   -1.0034    0.0833 F   0  0  0  0  0  0  0  0  0  0  0  0
    1.0912   -0.5834    0.0435 C   0  0  0  0  0  0  0  0  0  0  0  0
    0.7036    0.7354   -0.0190 C   0  0  0  0  0  0  0  0  0  0  0  0
   -0.7118    0.7264   -0.0430 C   0  0  0  0  0  0  0  0  0  0  0  0
   -1.0846   -0.5971    0.0066 C   0  0  0  0  0  0  0  0  0  0  0  0
   -2.3520   -1.0332    0.0032 F   0  0  0  0  0  0  0  0  0  0  0  0
    0.0078   -1.4027    0.0595 O   0  0  0  0  0  0  0  0  0  0  0  0
  1  2  1  0
  2  3  2  0
  3  4  1  0
  4  5  2  0
  5  6  1  0
  5  7  1  0
  7  2  1  0
M  END
$$$$
