
     RDKit          3D

 11 10  0  0  0  0  0  0  0  0999 V2000
    1.3216    1.2839   -0.6948 F   0  0  0  0  0  0  0  0  0  0  0  0
    1.2164    0.2065    0.1174 C   0  0  0  0  0  0  0  0  0  0  0  0
    2.3570   -0.5118   -0.0429 F   0  0  0  0  0  0  0  0  0  0  0  0
    1.2253    0.6659    1.3903 F   0  0  0  0  0  0  0  0  0  0  0  0
   -0.0010   -0.6278   -0.1861 C   0  0  0  0  0  0  0  0  0  0  0  0
   -0.0505   -1.7259    0.6234 F   0  0  0  0  0  0  0  0  0  0  0  0
    0.0459   -1.1075   -1.4633 F   0  0  0  0  0  0  0  0  0  0  0  0
   -1.2157    0.2407    0.0152 C   0  0  0  0  0  0  0  0  0  0  0  0
   -1.2221    1.3197   -0.8017 F   0  0  0  0  0  0  0  0  0  0  0  0
   -2.3585   -0.4455   -0.2409 F   0  0  0  0  0  0  0  0  0  0  0  0
   -1.3184    0.7018    1.2835 F   0  0  0  0  0  0  0  0  0  0  0  0
  1  2  1  0
  2  3  1  0
  2  4  1  0
  2  5  1  0
  5  6  1  0
  5  7  1  0
  5  8  1  0
  8  9  1  0
  8 10  1  0
  8 11  1  0
M  END
$$$$
