
     RDKit          3D

 15 15  0  0  0  0  0  0  0  0999 V2000
    4.6943   -0.0593   -0.8616 C   0  0  0  0  0  0  0  0  0  0  0  0
    3.8574    0.4740    0.2858 C   0  0  0  0  0  0  0  0  0  0  0  0
    2.4664    0.4611   -0.0692 O   0  0  0  0  0  0  0  0  0  0  0  0
    1.7986   -0.6972    0.1849 C   0  0  0  0  0  0  0  0  0  0  0  0
    2.2984   -1.7168    0.6405 O   0  0  0  0  0  0  0  0  0  0  0  0
    0.3618   -0.5747   -0.2054 C   0  0  0  0  0  0  0  0  0  0  0  0
   -0.4100    0.0041    0.9609 C   0  0  0  0  0  0  0  0  0  0  0  0
   -0.2159   -0.7775    2.0610 F   0  0  0  0  0  0  0  0  0  0  0  0
    0.1127    1.2224    1.2837 F   0  0  0  0  0  0  0  0  0  0  0  0
   -1.8819    0.1093    0.6063 C   0  0  0  0  0  0  0  0  0  0  0  0
   -2.3893    1.2702    0.0019 C   0  0  0  0  0  0  0  0  0  0  0  0
   -3.7386    1.3562   -0.3438 C   0  0  0  0  0  0  0  0  0  0  0  0
   -4.5937    0.2854   -0.0897 C   0  0  0  0  0  0  0  0  0  0  0  0
   -4.1031   -0.8717    0.5127 C   0  0  0  0  0  0  0  0  0  0  0  0
   -2.7543   -0.9607    0.8596 C   0  0  0  0  0  0  0  0  0  0  0  0
  1  2  1  0
  2  3  1  0
  3  4  1  0
  4  5  2  0
  4  6  1  0
  6  7  1  0
  7  8  1  0
  7  9  1  0
  7 10  1  0
 10 11  2  0
 11 12  1  0
 12 13  2  0
 13 14  1  0
 14 15  2  0
 15 10  1  0
M  END
$$$$
