
     RDKit          3D

 13 12  0  0  0  0  0  0  0  0999 V2000
    1.8745   -0.7221    1.2298 C   0  0  0  0  0  0  0  0  0  0  0  0
    0.9757    0.3477    0.5816 C   0  0  0  0  0  0  0  0  0  0  0  0
    0.0338    0.8968    1.6577 C   0  0  0  0  0  0  0  0  0  0  0  0
    1.8671    1.4715    0.0347 C   0  0  0  0  0  0  0  0  0  0  0  0
    0.1979   -0.2835   -0.5925 C   0  0  0  0  0  0  0  0  0  0  0  0
    0.4859   -1.4025   -1.0265 O   0  0  0  0  0  0  0  0  0  0  0  0
   -0.8768    0.5148   -1.2893 C   0  0  0  0  0  0  0  0  0  0  0  0
   -2.5597   -0.0103   -0.9321 S   0  0  0  0  0  4  0  0  0  0  0  0
   -2.7939    0.0670    0.5494 O   0  0  0  0  0  0  0  0  0  0  0  0
   -2.4279   -1.7216   -1.4987 C   0  0  0  0  0  0  0  0  0  0  0  0
   -1.8232   -2.5382   -0.6069 F   0  0  0  0  0  0  0  0  0  0  0  0
   -1.7713   -1.8113   -2.6820 F   0  0  0  0  0  0  0  0  0  0  0  0
   -3.6670   -2.2399   -1.7173 F   0  0  0  0  0  0  0  0  0  0  0  0
  1  2  1  0
  2  3  1  0
  2  4  1  0
  2  5  1  0
  5  6  2  0
  5  7  1  0
  7  8  1  0
  8  9  2  0
  8 10  1  0
 10 11  1  0
 10 12  1  0
 10 13  1  0
M  END
$$$$
