
     RDKit          3D

 11 11  0  0  0  0  0  0  0  0999 V2000
   -1.5714   -2.3524    0.0528 F   0  0  0  0  0  0  0  0  0  0  0  0
   -0.7356   -1.3044    0.0326 C   0  0  0  0  0  0  0  0  0  0  0  0
    0.5880   -1.5717    0.0750 N   0  0  0  0  0  0  0  0  0  0  0  0
    1.4108   -0.5004    0.0536 C   0  0  0  0  0  0  0  0  0  0  0  0
    2.7290   -0.7414    0.0949 F   0  0  0  0  0  0  0  0  0  0  0  0
    0.9740    0.8126   -0.0078 C   0  0  0  0  0  0  0  0  0  0  0  0
    1.8563    1.8219   -0.0254 F   0  0  0  0  0  0  0  0  0  0  0  0
   -0.3924    1.0489   -0.0501 C   0  0  0  0  0  0  0  0  0  0  0  0
   -0.9952    2.6600   -0.1270 Cl  0  0  0  0  0  0  0  0  0  0  0  0
   -1.2679   -0.0272   -0.0297 C   0  0  0  0  0  0  0  0  0  0  0  0
   -2.5956    0.1541   -0.0689 F   0  0  0  0  0  0  0  0  0  0  0  0
  1  2  1  0
  2  3  2  0
  3  4  1  0
  4  5  1  0
  4  6  2  0
  6  7  1  0
  6  8  1  0
  8  9  1  0
  8 10  2  0
 10 11  1  0
 10  2  1  0
M  END
$$$$
