
     RDKit          3D

 18 18  0  0  0  0  0  0  0  0999 V2000
   -5.5909   -0.1263   -1.5368 C   0  0  0  0  0  0  0  0  0  0  0  0
   -4.8996    0.2956   -0.2500 C   0  0  0  0  0  0  0  0  0  0  0  0
   -3.3814    0.1399   -0.3524 C   0  0  0  0  0  0  0  0  0  0  0  0
   -2.6933    0.5574    0.9483 C   0  0  0  0  0  0  0  0  0  0  0  0
   -1.1613    0.5922    0.8632 C   0  0  0  0  0  0  0  0  0  0  0  0
   -0.5109   -0.7722    0.6244 C   0  0  0  0  0  0  0  0  0  0  0  0
   -1.0526   -1.6637    1.5017 F   0  0  0  0  0  0  0  0  0  0  0  0
   -0.8384   -1.2132   -0.6217 F   0  0  0  0  0  0  0  0  0  0  0  0
    1.0191   -0.7615    0.7775 C   0  0  0  0  0  0  0  0  0  0  0  0
    1.3496   -0.3176    2.0233 F   0  0  0  0  0  0  0  0  0  0  0  0
    1.4890   -2.0382    0.6829 F   0  0  0  0  0  0  0  0  0  0  0  0
    1.7095    0.1068   -0.2773 C   0  0  0  0  0  0  0  0  0  0  0  0
    3.2189    0.0768   -0.1863 C   0  0  0  0  0  0  0  0  0  0  0  0
    3.8994    0.9662    0.6567 C   0  0  0  0  0  0  0  0  0  0  0  0
    5.2920    0.9323    0.7436 C   0  0  0  0  0  0  0  0  0  0  0  0
    6.0165    0.0082   -0.0065 C   0  0  0  0  0  0  0  0  0  0  0  0
    5.3492   -0.8857   -0.8415 C   0  0  0  0  0  0  0  0  0  0  0  0
    3.9568   -0.8540   -0.9304 C   0  0  0  0  0  0  0  0  0  0  0  0
  1  2  1  0
  2  3  1  0
  3  4  1  0
  4  5  1  0
  5  6  1  0
  6  7  1  0
  6  8  1  0
  6  9  1  0
  9 10  1  0
  9 11  1  0
  9 12  1  0
 12 13  1  0
 13 14  2  0
 14 15  1  0
 15 16  2  0
 16 17  1  0
 17 18  2  0
 18 13  1  0
M  END
$$$$
