
     RDKit          3D

 11 11  0  0  0  0  0  0  0  0999 V2000
   -1.9868    1.2509    0.7877 C   0  0  0  0  0  0  0  0  0  0  0  0
   -2.0916    0.3299   -0.4212 C   0  0  0  0  0  0  0  0  0  0  0  0
   -2.1708   -1.1355   -0.0126 C   0  0  0  0  0  0  0  0  0  0  0  0
   -3.2789    0.6281   -1.0374 F   0  0  0  0  0  0  0  0  0  0  0  0
   -0.7639    0.6431   -1.6605 S   0  0  0  0  0  0  0  0  0  0  0  0
    0.7061    0.2236   -0.7474 C   0  0  0  0  0  0  0  0  0  0  0  0
    1.2180   -1.0768   -0.7936 C   0  0  0  0  0  0  0  0  0  0  0  0
    2.3826   -1.4009   -0.0946 C   0  0  0  0  0  0  0  0  0  0  0  0
    3.0496   -0.4227    0.6410 C   0  0  0  0  0  0  0  0  0  0  0  0
    2.5585    0.8814    0.6709 C   0  0  0  0  0  0  0  0  0  0  0  0
    1.3940    1.2057   -0.0281 C   0  0  0  0  0  0  0  0  0  0  0  0
  1  2  1  0
  2  3  1  0
  2  4  1  0
  2  5  1  0
  5  6  1  0
  6  7  2  0
  7  8  1  0
  8  9  2  0
  9 10  1  0
 10 11  2  0
 11  6  1  0
M  END
$$$$
