
     RDKit          3D

  8  7  0  0  0  0  0  0  0  0999 V2000
   -1.9651    0.0421    0.4993 C   0  0  0  0  0  0  0  0  0  0  0  0
   -0.4718    0.2756    0.6889 C   0  0  0  0  0  0  0  0  0  0  0  0
    0.3382   -0.0766   -0.5619 C   0  0  0  0  0  0  0  0  0  0  0  0
    0.1499   -1.4733   -0.8600 O   0  0  0  0  0  0  0  0  0  0  0  0
    1.8185    0.2930   -0.3827 C   0  0  0  0  0  0  0  0  0  0  0  0
    2.3738   -0.3195    0.6838 F   0  0  0  0  0  0  0  0  0  0  0  0
    2.5213   -0.0803   -1.4802 F   0  0  0  0  0  0  0  0  0  0  0  0
    1.9803    1.6256   -0.2314 F   0  0  0  0  0  0  0  0  0  0  0  0
  1  2  1  0
  2  3  1  0
  3  4  1  0
  3  5  1  0
  5  6  1  0
  5  7  1  0
  5  8  1  0
M  END
$$$$
