
     RDKit          3D

 13 12  0  0  0  0  0  0  0  0999 V2000
    1.6588    0.7633   -1.2717 F   0  0  0  0  0  0  0  0  0  0  0  0
    1.4820   -0.3405   -0.5076 C   0  0  0  0  0  0  0  0  0  0  0  0
    2.7246   -0.7739   -0.1610 F   0  0  0  0  0  0  0  0  0  0  0  0
    0.6666   -0.0282    0.7359 C   0  0  0  0  0  0  0  0  0  0  0  0
    1.4072    0.7586    1.5746 F   0  0  0  0  0  0  0  0  0  0  0  0
    0.4396   -1.1842    1.4241 F   0  0  0  0  0  0  0  0  0  0  0  0
   -0.6448    0.6713    0.4450 C   0  0  0  0  0  0  0  0  0  0  0  0
   -0.4244    1.8817   -0.1427 F   0  0  0  0  0  0  0  0  0  0  0  0
   -1.2811    0.9483    1.6246 F   0  0  0  0  0  0  0  0  0  0  0  0
   -1.5447   -0.1785   -0.4283 C   0  0  0  0  0  0  0  0  0  0  0  0
   -1.7839   -1.3939    0.1140 F   0  0  0  0  0  0  0  0  0  0  0  0
   -0.9939   -0.4011   -1.6459 F   0  0  0  0  0  0  0  0  0  0  0  0
   -2.7446    0.4079   -0.6446 F   0  0  0  0  0  0  0  0  0  0  0  0
  1  2  1  0
  2  3  1  0
  2  4  1  0
  4  5  1  0
  4  6  1  0
  4  7  1  0
  7  8  1  0
  7  9  1  0
  7 10  1  0
 10 11  1  0
 10 12  1  0
 10 13  1  0
M  END
$$$$
