
     RDKit          3D

 15 14  0  0  0  0  0  0  0  0999 V2000
   -6.5666   -0.3923   -0.6343 C   0  0  0  0  0  0  0  0  0  0  0  0
   -5.2549   -0.7768    0.0313 C   0  0  0  0  0  0  0  0  0  0  0  0
   -4.2099    0.3298   -0.1097 C   0  0  0  0  0  0  0  0  0  0  0  0
   -2.8914   -0.0610    0.5617 C   0  0  0  0  0  0  0  0  0  0  0  0
   -1.8460    1.0466    0.4153 C   0  0  0  0  0  0  0  0  0  0  0  0
   -0.5413    0.7554    1.1631 C   0  0  0  0  0  0  0  0  0  0  0  0
    0.2102   -0.5050    0.7227 C   0  0  0  0  0  0  0  0  0  0  0  0
    0.5861   -0.5662   -0.7610 C   0  0  0  0  0  0  0  0  0  0  0  0
    1.4462    0.5935   -1.2738 C   0  0  0  0  0  0  0  0  0  0  0  0
    2.7732    0.8107   -0.5386 C   0  0  0  0  0  0  0  0  0  0  0  0
    3.7104   -0.3993   -0.6105 C   0  0  0  0  0  0  0  0  0  0  0  0
    5.0665   -0.1160   -0.0087 C   0  0  0  0  0  0  0  0  0  0  0  0
    5.1359    0.0203    1.4852 C   0  0  0  0  0  0  0  0  0  0  0  0
    6.1592   -0.0246   -0.7756 C   0  0  0  0  0  0  0  0  0  0  0  0
    7.3796    0.2124   -0.2604 F   0  0  0  0  0  0  0  0  0  0  0  0
  1  2  1  0
  2  3  1  0
  3  4  1  0
  4  5  1  0
  5  6  1  0
  6  7  1  0
  7  8  1  0
  8  9  1  0
  9 10  1  0
 10 11  1  0
 11 12  1  0
 12 13  1  0
 12 14  2  0
 14 15  1  0
M  END
$$$$
