
     RDKit          3D

  8  7  0  0  0  0  0  0  0  0999 V2000
   -2.3184   -0.6047   -0.2570 O   0  0  0  0  0  0  0  0  0  0  0  0
   -1.6903    0.6592   -0.1036 C   0  0  0  0  0  0  0  0  0  0  0  0
   -0.2630    0.4819    0.3955 C   0  0  0  0  0  0  0  0  0  0  0  0
    0.5941   -0.3085   -0.5962 C   0  0  0  0  0  0  0  0  0  0  0  0
    2.0152   -0.4596   -0.1045 C   0  0  0  0  0  0  0  0  0  0  0  0
    2.0593   -1.1143    1.0755 F   0  0  0  0  0  0  0  0  0  0  0  0
    2.6042    0.7436    0.0658 F   0  0  0  0  0  0  0  0  0  0  0  0
    2.7572   -1.1581   -0.9908 F   0  0  0  0  0  0  0  0  0  0  0  0
  1  2  1  0
  2  3  1  0
  3  4  1  0
  4  5  1  0
  5  6  1  0
  5  7  1  0
  5  8  1  0
M  END
$$$$
