
     RDKit          3D

 25 24  0  0  0  0  0  0  0  0999 V2000
    4.6855   -0.4619    0.1592 C   0  0  0  0  0  0  0  0  0  0  0  0
    3.3368   -0.0615    0.4131 O   0  0  0  0  0  0  0  0  0  0  0  0
    2.4261   -1.0793    0.3632 C   0  0  0  0  0  0  0  0  0  0  0  0
    2.7157   -2.2466    0.1242 O   0  0  0  0  0  0  0  0  0  0  0  0
    1.0252   -0.5721    0.6389 C   0  0  0  0  0  0  0  0  0  0  0  0
    0.2518   -1.5113    1.2583 F   0  0  0  0  0  0  0  0  0  0  0  0
    1.0185    0.5097    1.4750 F   0  0  0  0  0  0  0  0  0  0  0  0
    0.3967   -0.1767   -0.7159 C   0  0  0  0  0  0  0  0  0  0  0  0
    1.1797    0.7825   -1.2977 F   0  0  0  0  0  0  0  0  0  0  0  0
    0.5151   -1.2199   -1.5896 F   0  0  0  0  0  0  0  0  0  0  0  0
   -0.9736    0.2941   -0.8073 N   0  0  0  0  0  0  0  0  0  0  0  0
   -1.2270    1.5473   -0.1002 C   0  0  0  0  0  0  0  0  0  0  0  0
   -0.0636    2.2661   -0.0986 F   0  0  0  0  0  0  0  0  0  0  0  0
   -2.0405    2.2479   -0.9522 F   0  0  0  0  0  0  0  0  0  0  0  0
   -1.8510    1.6807    1.3462 C   0  0  0  0  0  0  0  0  0  0  0  0
   -1.9139    2.9767    1.7388 F   0  0  0  0  0  0  0  0  0  0  0  0
   -3.1162    1.1986    1.3951 F   0  0  0  0  0  0  0  0  0  0  0  0
   -1.1368    1.0151    2.2796 F   0  0  0  0  0  0  0  0  0  0  0  0
   -1.9611   -0.7273   -0.5124 C   0  0  0  0  0  0  0  0  0  0  0  0
   -2.0764   -0.8198    0.8353 F   0  0  0  0  0  0  0  0  0  0  0  0
   -1.4782   -1.9443   -0.8924 F   0  0  0  0  0  0  0  0  0  0  0  0
   -3.3702   -0.5571   -1.1766 C   0  0  0  0  0  0  0  0  0  0  0  0
   -3.9618    0.6046   -0.8117 F   0  0  0  0  0  0  0  0  0  0  0  0
   -4.2120   -1.5600   -0.8322 F   0  0  0  0  0  0  0  0  0  0  0  0
   -3.2841   -0.5484   -2.5292 F   0  0  0  0  0  0  0  0  0  0  0  0
  1  2  1  0
  2  3  1  0
  3  4  2  0
  3  5  1  0
  5  6  1  0
  5  7  1  0
  5  8  1  0
  8  9  1  0
  8 10  1  0
  8 11  1  0
 11 12  1  0
 12 13  1  0
 12 14  1  0
 12 15  1  0
 15 16  1  0
 15 17  1  0
 15 18  1  0
 11 19  1  0
 19 20  1  0
 19 21  1  0
 19 22  1  0
 22 23  1  0
 22 24  1  0
 22 25  1  0
M  END
$$$$
