
     RDKit          3D

 25 24  0  0  0  0  0  0  0  0999 V2000
    4.7653   -0.0292   -0.6845 O   0  0  0  0  0  0  0  0  0  0  0  0
    3.8424    0.4703   -0.0572 C   0  0  0  0  0  0  0  0  0  0  0  0
    4.1161    1.2279    1.0299 O   0  0  0  0  0  0  0  0  0  0  0  0
    2.3607    0.3355   -0.3615 C   0  0  0  0  0  0  0  0  0  0  0  0
    2.1392    0.1655   -1.6970 F   0  0  0  0  0  0  0  0  0  0  0  0
    1.6736    1.4627   -0.0168 F   0  0  0  0  0  0  0  0  0  0  0  0
    1.8298   -0.8556    0.4091 C   0  0  0  0  0  0  0  0  0  0  0  0
    1.8766   -0.6042    1.7503 F   0  0  0  0  0  0  0  0  0  0  0  0
    2.6543   -1.9336    0.2220 F   0  0  0  0  0  0  0  0  0  0  0  0
    0.4212   -1.2734    0.0169 C   0  0  0  0  0  0  0  0  0  0  0  0
    0.4135   -1.7235   -1.2693 F   0  0  0  0  0  0  0  0  0  0  0  0
    0.0822   -2.3583    0.7801 F   0  0  0  0  0  0  0  0  0  0  0  0
   -0.6332   -0.1939    0.1897 C   0  0  0  0  0  0  0  0  0  0  0  0
   -0.5060    0.3726    1.4174 F   0  0  0  0  0  0  0  0  0  0  0  0
   -0.4390    0.7988   -0.7149 F   0  0  0  0  0  0  0  0  0  0  0  0
   -2.0356   -0.7524    0.0306 C   0  0  0  0  0  0  0  0  0  0  0  0
   -2.0932   -1.5190   -1.1011 F   0  0  0  0  0  0  0  0  0  0  0  0
   -2.3087   -1.6060    1.0579 F   0  0  0  0  0  0  0  0  0  0  0  0
   -3.1242    0.2984   -0.0642 C   0  0  0  0  0  0  0  0  0  0  0  0
   -2.9684    1.0355   -1.2032 F   0  0  0  0  0  0  0  0  0  0  0  0
   -4.3284   -0.3408   -0.2137 F   0  0  0  0  0  0  0  0  0  0  0  0
   -3.1883    1.2126    1.1429 C   0  0  0  0  0  0  0  0  0  0  0  0
   -4.2722    2.0254    1.0904 F   0  0  0  0  0  0  0  0  0  0  0  0
   -3.2635    0.5229    2.3027 F   0  0  0  0  0  0  0  0  0  0  0  0
   -2.1102    2.0245    1.2239 F   0  0  0  0  0  0  0  0  0  0  0  0
  1  2  2  0
  2  3  1  0
  2  4  1  0
  4  5  1  0
  4  6  1  0
  4  7  1  0
  7  8  1  0
  7  9  1  0
  7 10  1  0
 10 11  1  0
 10 12  1  0
 10 13  1  0
 13 14  1  0
 13 15  1  0
 13 16  1  0
 16 17  1  0
 16 18  1  0
 16 19  1  0
 19 20  1  0
 19 21  1  0
 19 22  1  0
 22 23  1  0
 22 24  1  0
 22 25  1  0
M  END
$$$$
