
     RDKit          3D

  7  6  0  0  0  0  0  0  0  0999 V2000
    0.9746    1.4023    0.4615 O   0  0  0  0  0  0  0  0  0  0  0  0
    0.5378    0.3183    0.0940 C   0  0  0  0  0  0  0  0  0  0  0  0
    1.4202   -0.6746   -0.1921 O   0  0  0  0  0  0  0  0  0  0  0  0
   -0.9329   -0.0878   -0.0477 C   0  0  0  0  0  0  0  0  0  0  0  0
   -1.1639   -0.8547   -1.1511 F   0  0  0  0  0  0  0  0  0  0  0  0
   -1.3687   -0.8140    1.0207 F   0  0  0  0  0  0  0  0  0  0  0  0
   -1.7689    0.9835   -0.1483 F   0  0  0  0  0  0  0  0  0  0  0  0
  1  2  2  0
  2  3  1  0
  2  4  1  0
  4  5  1  0
  4  6  1  0
  4  7  1  0
M  END
$$$$
