
     RDKit          3D

  7  6  0  0  0  0  0  0  0  0999 V2000
    1.2423    0.9487   -0.8601 F   0  0  0  0  0  0  0  0  0  0  0  0
    0.7665   -0.0705   -0.0950 C   0  0  0  0  0  0  0  0  0  0  0  0
    1.4008    0.0241    1.1048 F   0  0  0  0  0  0  0  0  0  0  0  0
   -0.7437    0.0163    0.0676 C   0  0  0  0  0  0  0  0  0  0  0  0
   -1.2134   -1.0007    0.8322 F   0  0  0  0  0  0  0  0  0  0  0  0
   -1.3717   -0.0770   -1.1308 F   0  0  0  0  0  0  0  0  0  0  0  0
   -1.1394    1.1735    0.6441 F   0  0  0  0  0  0  0  0  0  0  0  0
  1  2  1  0
  2  3  1  0
  2  4  1  0
  4  5  1  0
  4  6  1  0
  4  7  1  0
M  END
$$$$
