
     RDKit          3D

 12 12  0  0  0  0  0  0  0  0999 V2000
    2.7970   -1.3028   -0.9068 F   0  0  0  0  0  0  0  0  0  0  0  0
    2.6541    0.0060   -0.5810 C   0  0  0  0  0  0  0  0  0  0  0  0
    1.7984    0.5561   -1.4742 F   0  0  0  0  0  0  0  0  0  0  0  0
    3.8612    0.5925   -0.7897 F   0  0  0  0  0  0  0  0  0  0  0  0
    2.2325    0.1684    0.8399 C   0  0  0  0  0  0  0  0  0  0  0  0
    0.9920    0.2283    1.3526 C   0  0  0  0  0  0  0  0  0  0  0  0
   -0.2502    0.0750    0.5920 C   0  0  0  0  0  0  0  0  0  0  0  0
   -0.5203   -1.0898   -0.1364 C   0  0  0  0  0  0  0  0  0  0  0  0
   -1.7226   -1.2216   -0.8346 C   0  0  0  0  0  0  0  0  0  0  0  0
   -2.6654   -0.1955   -0.8019 C   0  0  0  0  0  0  0  0  0  0  0  0
   -2.4091    0.9618   -0.0686 C   0  0  0  0  0  0  0  0  0  0  0  0
   -1.2071    1.0952    0.6300 C   0  0  0  0  0  0  0  0  0  0  0  0
  1  2  1  0
  2  3  1  0
  2  4  1  0
  2  5  1  0
  5  6  2  0
  6  7  1  0
  7  8  2  0
  8  9  1  0
  9 10  2  0
 10 11  1  0
 11 12  2  0
 12  7  1  0
M  END
$$$$
