
     RDKit          3D

 15 15  0  0  0  0  0  0  0  0999 V2000
    3.7316    1.4684    0.3672 C   0  0  0  0  0  0  0  0  0  0  0  0
    2.3989    1.3108   -0.3400 C   0  0  0  0  0  0  0  0  0  0  0  0
    1.6809    0.1940    0.2041 O   0  0  0  0  0  0  0  0  0  0  0  0
    0.9079    0.4525    1.3058 C   0  0  0  0  0  0  0  0  0  0  0  0
    0.8147    1.5561    1.8361 O   0  0  0  0  0  0  0  0  0  0  0  0
    0.1802   -0.8243    1.7908 C   0  0  0  0  0  0  0  0  0  0  0  0
   -0.7996   -0.5639    2.7085 F   0  0  0  0  0  0  0  0  0  0  0  0
    1.5900   -1.8334    2.7526 Br  0  0  0  0  0  0  0  0  0  0  0  0
   -0.3547   -1.6898    0.8040 O   0  0  0  0  0  0  0  0  0  0  0  0
   -1.3124   -1.1853   -0.0300 C   0  0  0  0  0  0  0  0  0  0  0  0
   -1.5208   -1.9327   -1.1929 C   0  0  0  0  0  0  0  0  0  0  0  0
   -2.4653   -1.5302   -2.1381 C   0  0  0  0  0  0  0  0  0  0  0  0
   -3.2157   -0.3780   -1.9209 C   0  0  0  0  0  0  0  0  0  0  0  0
   -3.0246    0.3639   -0.7569 C   0  0  0  0  0  0  0  0  0  0  0  0
   -2.0782   -0.0393    0.1905 C   0  0  0  0  0  0  0  0  0  0  0  0
  1  2  1  0
  2  3  1  0
  3  4  1  0
  4  5  2  0
  4  6  1  0
  6  7  1  0
  6  8  1  0
  6  9  1  0
  9 10  1  0
 10 11  2  0
 11 12  1  0
 12 13  2  0
 13 14  1  0
 14 15  2  0
 15 10  1  0
M  END
$$$$
