
     RDKit          3D

  7  6  0  0  0  0  0  0  0  0999 V2000
    2.3688    0.1604    0.3858 C   0  0  0  0  0  0  0  0  0  0  0  0
    0.9218    0.5516    0.1174 C   0  0  0  0  0  0  0  0  0  0  0  0
    0.1043   -0.6285   -0.3943 C   0  0  0  0  0  0  0  0  0  0  0  0
    0.1113   -1.6214    0.5328 F   0  0  0  0  0  0  0  0  0  0  0  0
    0.7071   -1.1362   -1.5042 F   0  0  0  0  0  0  0  0  0  0  0  0
   -1.3385   -0.2950   -0.7558 C   0  0  0  0  0  0  0  0  0  0  0  0
   -2.1664    0.2121    0.4138 C   0  0  0  0  0  0  0  0  0  0  0  0
  1  2  1  0
  2  3  1  0
  3  4  1  0
  3  5  1  0
  3  6  1  0
  6  7  1  0
M  END
$$$$
