
     RDKit          3D

 12 12  0  0  0  0  0  0  0  0999 V2000
    1.6886    1.6797    0.1510 O   0  0  0  0  0  0  0  0  0  0  0  0
    1.2548    0.5516   -0.0181 C   0  0  0  0  0  0  0  0  0  0  0  0
    1.9871   -0.5784   -0.0684 O   0  0  0  0  0  0  0  0  0  0  0  0
    3.3717   -0.3158    0.0122 C   0  0  0  0  0  0  0  0  0  0  0  0
    3.8095    0.0213   -1.2250 F   0  0  0  0  0  0  0  0  0  0  0  0
    3.9754   -1.4914    0.3260 F   0  0  0  0  0  0  0  0  0  0  0  0
   -0.1933    0.2459   -0.1790 C   0  0  0  0  0  0  0  0  0  0  0  0
   -0.6697   -1.0557   -0.3899 C   0  0  0  0  0  0  0  0  0  0  0  0
   -2.0403   -1.2861   -0.5337 C   0  0  0  0  0  0  0  0  0  0  0  0
   -2.9394   -0.2222   -0.4685 C   0  0  0  0  0  0  0  0  0  0  0  0
   -2.4731    1.0749   -0.2603 C   0  0  0  0  0  0  0  0  0  0  0  0
   -1.1043    1.3098   -0.1161 C   0  0  0  0  0  0  0  0  0  0  0  0
  1  2  2  0
  2  3  1  0
  3  4  1  0
  4  5  1  0
  4  6  1  0
  2  7  1  0
  7  8  2  0
  8  9  1  0
  9 10  2  0
 10 11  1  0
 11 12  2  0
 12  7  1  0
M  END
$$$$
