
     RDKit          3D

 11 11  0  0  0  0  0  0  0  0999 V2000
   -0.4928    2.7036    0.0101 F   0  0  0  0  0  0  0  0  0  0  0  0
   -0.2328    1.3896    0.0051 C   0  0  0  0  0  0  0  0  0  0  0  0
    1.0893    0.9617   -0.0040 C   0  0  0  0  0  0  0  0  0  0  0  0
    1.3500   -0.4033   -0.0092 C   0  0  0  0  0  0  0  0  0  0  0  0
    2.6216   -0.8243   -0.0180 F   0  0  0  0  0  0  0  0  0  0  0  0
    0.3096   -1.3300   -0.0054 C   0  0  0  0  0  0  0  0  0  0  0  0
    0.5980   -2.6400   -0.0106 F   0  0  0  0  0  0  0  0  0  0  0  0
   -1.0138   -0.8950    0.0038 C   0  0  0  0  0  0  0  0  0  0  0  0
   -2.3047   -2.0347    0.0085 Cl  0  0  0  0  0  0  0  0  0  0  0  0
   -1.2813    0.4721    0.0090 C   0  0  0  0  0  0  0  0  0  0  0  0
   -2.5454    0.9208    0.0178 F   0  0  0  0  0  0  0  0  0  0  0  0
  1  2  1  0
  2  3  2  0
  3  4  1  0
  4  5  1  0
  4  6  2  0
  6  7  1  0
  6  8  1  0
  8  9  1  0
  8 10  2  0
 10 11  1  0
 10  2  1  0
M  END
$$$$
