
     RDKit          3D

 22 22  0  0  0  0  0  0  0  0999 V2000
    3.9263   -0.8589    0.7665 F   0  0  0  0  0  0  0  0  0  0  0  0
    2.9117   -1.6458    0.3159 C   0  0  0  0  0  0  0  0  0  0  0  0
    2.8423   -2.6980    1.1761 F   0  0  0  0  0  0  0  0  0  0  0  0
    3.3270   -2.1556   -0.8743 F   0  0  0  0  0  0  0  0  0  0  0  0
    1.5997   -0.9007    0.1891 C   0  0  0  0  0  0  0  0  0  0  0  0
    0.3795   -1.5698    0.3435 C   0  0  0  0  0  0  0  0  0  0  0  0
   -0.8544   -0.8997    0.2083 C   0  0  0  0  0  0  0  0  0  0  0  0
   -2.1346   -1.6939    0.4289 C   0  0  0  0  0  0  0  0  0  0  0  0
   -2.7489   -2.0173   -0.7374 F   0  0  0  0  0  0  0  0  0  0  0  0
   -1.9195   -2.8739    1.0749 F   0  0  0  0  0  0  0  0  0  0  0  0
   -3.0401   -1.0237    1.1874 F   0  0  0  0  0  0  0  0  0  0  0  0
   -0.8675    0.4816   -0.1333 C   0  0  0  0  0  0  0  0  0  0  0  0
   -2.1908    1.2198   -0.3211 C   0  0  0  0  0  0  0  0  0  0  0  0
   -2.6445    1.7463    0.8436 F   0  0  0  0  0  0  0  0  0  0  0  0
   -3.1829    0.4271   -0.8011 F   0  0  0  0  0  0  0  0  0  0  0  0
   -2.1107    2.2464   -1.2058 F   0  0  0  0  0  0  0  0  0  0  0  0
    0.3689    1.1758   -0.2535 C   0  0  0  0  0  0  0  0  0  0  0  0
    0.4370    2.6693   -0.5418 C   0  0  0  0  0  0  0  0  0  0  0  0
   -0.4413    3.3857    0.2065 F   0  0  0  0  0  0  0  0  0  0  0  0
    0.1821    2.9559   -1.8438 F   0  0  0  0  0  0  0  0  0  0  0  0
    1.6621    3.2031   -0.2770 F   0  0  0  0  0  0  0  0  0  0  0  0
    1.5799    0.4670   -0.1096 C   0  0  0  0  0  0  0  0  0  0  0  0
  1  2  1  0
  2  3  1  0
  2  4  1  0
  2  5  1  0
  5  6  2  0
  6  7  1  0
  7  8  1  0
  8  9  1  0
  8 10  1  0
  8 11  1  0
  7 12  2  0
 12 13  1  0
 13 14  1  0
 13 15  1  0
 13 16  1  0
 12 17  1  0
 17 18  1  0
 18 19  1  0
 18 20  1  0
 18 21  1  0
 17 22  2  0
 22  5  1  0
M  END
$$$$
