
     RDKit          3D

  9  9  0  0  0  0  0  0  0  0999 V2000
    2.7164    0.1404   -0.0598 F   0  0  0  0  0  0  0  0  0  0  0  0
    1.3794    0.0713   -0.0304 C   0  0  0  0  0  0  0  0  0  0  0  0
    0.7616   -1.1708    0.0510 C   0  0  0  0  0  0  0  0  0  0  0  0
   -0.6266   -1.2287    0.0808 C   0  0  0  0  0  0  0  0  0  0  0  0
   -1.2339   -2.4196    0.1591 F   0  0  0  0  0  0  0  0  0  0  0  0
   -1.3954   -0.0721    0.0307 C   0  0  0  0  0  0  0  0  0  0  0  0
   -0.7528    1.1574   -0.0504 C   0  0  0  0  0  0  0  0  0  0  0  0
   -1.4825    2.2791   -0.0992 F   0  0  0  0  0  0  0  0  0  0  0  0
    0.6339    1.2430   -0.0817 C   0  0  0  0  0  0  0  0  0  0  0  0
  1  2  1  0
  2  3  2  0
  3  4  1  0
  4  5  1  0
  4  6  2  0
  6  7  1  0
  7  8  1  0
  7  9  2  0
  9  2  1  0
M  END
$$$$
