
     RDKit          3D

  7  6  0  0  0  0  0  0  0  0999 V2000
   -1.8138    0.0205    0.3921 O   0  0  0  0  0  0  0  0  0  0  0  0
   -0.8148    0.0682   -0.6181 C   0  0  0  0  0  0  0  0  0  0  0  0
    0.4589   -0.4846   -0.0712 C   0  0  0  0  0  0  0  0  0  0  0  0
    0.4773   -1.7914    0.2889 F   0  0  0  0  0  0  0  0  0  0  0  0
    1.5793    0.2376    0.0452 C   0  0  0  0  0  0  0  0  0  0  0  0
    1.5817    1.5345   -0.3361 F   0  0  0  0  0  0  0  0  0  0  0  0
    3.0402   -0.4424    0.6561 Cl  0  0  0  0  0  0  0  0  0  0  0  0
  1  2  1  0
  2  3  1  0
  3  4  1  0
  3  5  2  0
  5  6  1  0
  5  7  1  0
M  END
$$$$
