
     RDKit          3D

 14 13  0  0  0  0  0  0  0  0999 V2000
    0.7360    1.7019   -0.6224 F   0  0  0  0  0  0  0  0  0  0  0  0
    1.4318    0.6151   -0.2201 C   0  0  0  0  0  0  0  0  0  0  0  0
    2.6379    1.0704    0.1979 F   0  0  0  0  0  0  0  0  0  0  0  0
    1.6498   -0.1541   -1.3086 F   0  0  0  0  0  0  0  0  0  0  0  0
    0.7140   -0.1386    0.8802 C   0  0  0  0  0  0  0  0  0  0  0  0
    1.5562   -1.0851    1.4057 F   0  0  0  0  0  0  0  0  0  0  0  0
    0.4343    0.7043    1.9175 F   0  0  0  0  0  0  0  0  0  0  0  0
   -0.5438   -0.8274    0.4122 C   0  0  0  0  0  0  0  0  0  0  0  0
   -0.2392   -1.8116   -0.4841 F   0  0  0  0  0  0  0  0  0  0  0  0
   -1.1044   -1.4785    1.4814 F   0  0  0  0  0  0  0  0  0  0  0  0
   -1.5615    0.1211   -0.1866 C   0  0  0  0  0  0  0  0  0  0  0  0
   -1.8280    1.1654    0.6273 F   0  0  0  0  0  0  0  0  0  0  0  0
   -2.7373   -0.5064   -0.4327 F   0  0  0  0  0  0  0  0  0  0  0  0
   -1.1459    0.6234   -1.3706 F   0  0  0  0  0  0  0  0  0  0  0  0
  1  2  1  0
  2  3  1  0
  2  4  1  0
  2  5  1  0
  5  6  1  0
  5  7  1  0
  5  8  1  0
  8  9  1  0
  8 10  1  0
  8 11  1  0
 11 12  1  0
 11 13  1  0
 11 14  1  0
M  END
$$$$
