
     RDKit          3D

 11 11  0  0  0  0  0  0  0  0999 V2000
   -3.9735    0.5393    1.2422 O   0  0  0  0  0  0  0  0  0  0  0  0
   -3.1143    1.2067    0.3252 C   0  0  0  0  0  0  0  0  0  0  0  0
   -1.6935    0.7965    0.5674 C   0  0  0  0  0  0  0  0  0  0  0  0
   -1.1995    1.0048    1.8114 F   0  0  0  0  0  0  0  0  0  0  0  0
   -0.9168    0.2256   -0.3674 C   0  0  0  0  0  0  0  0  0  0  0  0
    0.4767   -0.2016   -0.1782 C   0  0  0  0  0  0  0  0  0  0  0  0
    0.9234   -1.3560   -0.8360 C   0  0  0  0  0  0  0  0  0  0  0  0
    2.2497   -1.7789   -0.7139 C   0  0  0  0  0  0  0  0  0  0  0  0
    3.1472   -1.0452    0.0583 C   0  0  0  0  0  0  0  0  0  0  0  0
    2.7203    0.1125    0.7046 C   0  0  0  0  0  0  0  0  0  0  0  0
    1.3937    0.5350    0.5824 C   0  0  0  0  0  0  0  0  0  0  0  0
  1  2  1  0
  2  3  1  0
  3  4  1  0
  3  5  2  0
  5  6  1  0
  6  7  2  0
  7  8  1  0
  8  9  2  0
  9 10  1  0
 10 11  2  0
 11  6  1  0
M  END
$$$$
