
     RDKit          3D

 11 11  0  0  0  0  0  0  0  0999 V2000
    2.2009    0.0993   -1.6547 O   0  0  0  0  0  0  0  0  0  0  0  0
    1.7376   -0.0268   -0.5188 C   0  0  0  0  0  0  0  0  0  0  0  0
    0.2579    0.0286   -0.3207 C   0  0  0  0  0  0  0  0  0  0  0  0
   -0.3407   -0.1065    0.9384 C   0  0  0  0  0  0  0  0  0  0  0  0
   -1.7317   -0.0465    1.0657 C   0  0  0  0  0  0  0  0  0  0  0  0
   -2.5320    0.1479   -0.0588 C   0  0  0  0  0  0  0  0  0  0  0  0
   -1.9457    0.2832   -1.3150 C   0  0  0  0  0  0  0  0  0  0  0  0
   -0.5568    0.2240   -1.4464 C   0  0  0  0  0  0  0  0  0  0  0  0
    2.6290   -0.2371    0.6862 C   0  0  0  0  0  0  0  0  0  0  0  0
    2.4825    0.7470    1.6185 F   0  0  0  0  0  0  0  0  0  0  0  0
    2.3631   -1.4088    1.3307 F   0  0  0  0  0  0  0  0  0  0  0  0
  1  2  2  0
  2  3  1  0
  3  4  2  0
  4  5  1  0
  5  6  2  0
  6  7  1  0
  7  8  2  0
  2  9  1  0
  9 10  1  0
  9 11  1  0
  8  3  1  0
M  END
$$$$
