
     RDKit          3D

  5  4  0  0  0  0  0  0  0  0999 V2000
   -1.4033   -1.1318    0.0878 F   0  0  0  0  0  0  0  0  0  0  0  0
   -0.7619    0.0670    0.0772 C   0  0  0  0  0  0  0  0  0  0  0  0
   -1.2131    0.7291   -1.0180 F   0  0  0  0  0  0  0  0  0  0  0  0
    0.7295   -0.1700   -0.0292 C   0  0  0  0  0  0  0  0  0  0  0  0
    1.6488    1.3411    0.1815 Cl  0  0  0  0  0  0  0  0  0  0  0  0
  1  2  1  0
  2  3  1  0
  2  4  1  0
  4  5  1  0
M  END
$$$$
