
     RDKit          3D

  9  9  0  0  0  0  0  0  0  0999 V2000
    2.8981    0.7005   -0.4874 F   0  0  0  0  0  0  0  0  0  0  0  0
    2.1837   -0.1610    0.2907 C   0  0  0  0  0  0  0  0  0  0  0  0
    2.6763   -1.4016    0.0141 F   0  0  0  0  0  0  0  0  0  0  0  0
    0.6959   -0.0542    0.0807 C   0  0  0  0  0  0  0  0  0  0  0  0
   -0.1336   -1.1670    0.2829 C   0  0  0  0  0  0  0  0  0  0  0  0
   -1.5158   -1.0587    0.1208 C   0  0  0  0  0  0  0  0  0  0  0  0
   -2.0825    0.1628   -0.2386 C   0  0  0  0  0  0  0  0  0  0  0  0
   -1.2693    1.2773   -0.4365 C   0  0  0  0  0  0  0  0  0  0  0  0
    0.1130    1.1711   -0.2748 C   0  0  0  0  0  0  0  0  0  0  0  0
  1  2  1  0
  2  3  1  0
  2  4  1  0
  4  5  2  0
  5  6  1  0
  6  7  2  0
  7  8  1  0
  8  9  2  0
  9  4  1  0
M  END
$$$$
