
     RDKit          3D

 14 14  0  0  0  0  0  0  0  0999 V2000
   -2.9343    0.5353   -1.3428 C   0  0  0  0  0  0  0  0  0  0  0  0
   -1.9908    0.0258   -0.5289 C   0  0  0  0  0  0  0  0  0  0  0  0
   -0.7058   -0.3769   -1.1542 C   0  0  0  0  0  0  0  0  0  0  0  0
   -0.6803   -0.9104   -2.2601 O   0  0  0  0  0  0  0  0  0  0  0  0
    0.5654   -0.1515   -0.4269 C   0  0  0  0  0  0  0  0  0  0  0  0
    1.5513   -1.1429   -0.4903 C   0  0  0  0  0  0  0  0  0  0  0  0
    2.7682   -0.9596    0.1673 C   0  0  0  0  0  0  0  0  0  0  0  0
    3.0067    0.2180    0.8755 C   0  0  0  0  0  0  0  0  0  0  0  0
    2.0348    1.2180    0.9199 C   0  0  0  0  0  0  0  0  0  0  0  0
    0.8155    1.0398    0.2631 C   0  0  0  0  0  0  0  0  0  0  0  0
   -2.1784   -0.3020    0.9110 C   0  0  0  0  0  0  0  0  0  0  0  0
   -1.6361   -1.4973    1.2526 F   0  0  0  0  0  0  0  0  0  0  0  0
   -3.4939   -0.3665    1.2529 F   0  0  0  0  0  0  0  0  0  0  0  0
   -1.6270    0.6343    1.7245 F   0  0  0  0  0  0  0  0  0  0  0  0
  1  2  2  0
  2  3  1  0
  3  4  2  0
  3  5  1  0
  5  6  2  0
  6  7  1  0
  7  8  2  0
  8  9  1  0
  9 10  2  0
  2 11  1  0
 11 12  1  0
 11 13  1  0
 11 14  1  0
 10  5  1  0
M  END
$$$$
