
     RDKit          3D

  5  4  0  0  0  0  0  0  0  0999 V2000
   -0.3687   -0.4645    0.8177 C   0  0  0  0  0  0  0  0  0  0  0  0
    0.5041    0.3369   -0.1287 C   0  0  0  0  0  0  0  0  0  0  0  0
    1.6782   -0.3378   -0.2954 F   0  0  0  0  0  0  0  0  0  0  0  0
   -0.1380    0.5167   -1.4377 C   0  0  0  0  0  0  0  0  0  0  0  0
   -0.6667    0.6745   -2.4603 N   0  0  0  0  0  0  0  0  0  0  0  0
  1  2  1  0
  2  3  1  0
  2  4  1  0
  4  5  3  0
M  END
$$$$
