
     RDKit          3D

  9  8  0  0  0  0  0  0  0  0999 V2000
    2.9828   -0.0148    1.0876 C   0  0  0  0  0  0  0  0  0  0  0  0
    1.9389    0.2104    0.0251 C   0  0  0  0  0  0  0  0  0  0  0  0
    2.2428    0.6478   -1.0835 O   0  0  0  0  0  0  0  0  0  0  0  0
    0.5046   -0.0919    0.4156 C   0  0  0  0  0  0  0  0  0  0  0  0
   -0.4284   -0.0906   -0.7923 C   0  0  0  0  0  0  0  0  0  0  0  0
   -1.8563   -0.4792   -0.4451 C   0  0  0  0  0  0  0  0  0  0  0  0
   -2.5729    0.4809    0.4816 C   0  0  0  0  0  0  0  0  0  0  0  0
   -1.8595   -1.7174    0.1140 F   0  0  0  0  0  0  0  0  0  0  0  0
   -2.5716   -0.5786   -1.5969 F   0  0  0  0  0  0  0  0  0  0  0  0
  1  2  1  0
  2  3  2  0
  2  4  1  0
  4  5  1  0
  5  6  1  0
  6  7  1  0
  6  8  1  0
  6  9  1  0
M  END
$$$$
