
     RDKit          3D

  9  8  0  0  0  0  0  0  0  0999 V2000
    2.3346   -0.0036   -0.3393 C   0  0  0  0  0  0  0  0  0  0  0  0
    1.0136   -0.7010   -0.1500 C   0  0  0  0  0  0  0  0  0  0  0  0
    0.7484   -1.7351   -0.7696 O   0  0  0  0  0  0  0  0  0  0  0  0
    0.0202   -0.0358    0.7889 C   0  0  0  0  0  0  0  0  0  0  0  0
    0.6576    0.8160    1.6539 F   0  0  0  0  0  0  0  0  0  0  0  0
   -0.5742   -0.9639    1.6046 F   0  0  0  0  0  0  0  0  0  0  0  0
   -1.0183    0.7094   -0.0340 C   0  0  0  0  0  0  0  0  0  0  0  0
   -2.3489    0.0288   -0.2179 C   0  0  0  0  0  0  0  0  0  0  0  0
   -0.7828    1.7959   -0.5701 O   0  0  0  0  0  0  0  0  0  0  0  0
  1  2  1  0
  2  3  2  0
  2  4  1  0
  4  5  1  0
  4  6  1  0
  4  7  1  0
  7  8  1  0
  7  9  2  0
M  END
$$$$
