
     RDKit          3D

  8  7  0  0  0  0  0  0  0  0999 V2000
   -2.6479    0.3426    0.4730 C   0  0  0  0  0  0  0  0  0  0  0  0
   -1.6272   -0.6669   -0.0149 C   0  0  0  0  0  0  0  0  0  0  0  0
   -0.4091    0.0322   -0.3011 O   0  0  0  0  0  0  0  0  0  0  0  0
    0.6071   -0.7688   -0.7260 C   0  0  0  0  0  0  0  0  0  0  0  0
    0.5201   -1.9759   -0.9074 O   0  0  0  0  0  0  0  0  0  0  0  0
    1.8372    0.0401   -1.0264 C   0  0  0  0  0  0  0  0  0  0  0  0
    2.2851    0.8237    0.1848 C   0  0  0  0  0  0  0  0  0  0  0  0
    2.7299   -0.0400    1.1366 F   0  0  0  0  0  0  0  0  0  0  0  0
  1  2  1  0
  2  3  1  0
  3  4  1  0
  4  5  2  0
  4  6  1  0
  6  7  1  0
  7  8  1  0
M  END
$$$$
