
     RDKit          3D

 14 14  0  0  0  0  0  0  0  0999 V2000
   -4.8929   -0.4557   -0.2013 F   0  0  0  0  0  0  0  0  0  0  0  0
   -4.2137    0.7116   -0.1913 C   0  0  0  0  0  0  0  0  0  0  0  0
   -4.8928    1.8785   -0.1967 F   0  0  0  0  0  0  0  0  0  0  0  0
   -2.8777    0.7167   -0.1736 C   0  0  0  0  0  0  0  0  0  0  0  0
   -2.2401    1.9110   -0.1749 F   0  0  0  0  0  0  0  0  0  0  0  0
   -2.1648   -0.4733   -0.1774 O   0  0  0  0  0  0  0  0  0  0  0  0
   -0.8023   -0.3839   -0.0443 C   0  0  0  0  0  0  0  0  0  0  0  0
   -0.0207   -1.0201   -1.0066 C   0  0  0  0  0  0  0  0  0  0  0  0
    1.3714   -0.9976   -0.8994 C   0  0  0  0  0  0  0  0  0  0  0  0
    1.9922   -0.3557    0.1828 C   0  0  0  0  0  0  0  0  0  0  0  0
    3.4878   -0.3212    0.2924 C   0  0  0  0  0  0  0  0  0  0  0  0
    4.1675    1.2511   -0.6245 Br  0  0  0  0  0  0  0  0  0  0  0  0
    1.1919    0.2673    1.1526 C   0  0  0  0  0  0  0  0  0  0  0  0
   -0.2007    0.2447    1.0460 C   0  0  0  0  0  0  0  0  0  0  0  0
  1  2  1  0
  2  3  1  0
  2  4  2  3
  4  5  1  0
  4  6  1  0
  6  7  1  0
  7  8  2  0
  8  9  1  0
  9 10  2  0
 10 11  1  0
 11 12  1  0
 10 13  1  0
 13 14  2  0
 14  7  1  0
M  END
$$$$
