
     RDKit          3D

  6  5  0  0  0  0  0  0  0  0999 V2000
   -1.9469    0.0562   -0.1058 C   0  0  0  0  0  0  0  0  0  0  0  0
   -0.5731   -0.2465    0.4707 C   0  0  0  0  0  0  0  0  0  0  0  0
    0.5404    0.2722   -0.4358 C   0  0  0  0  0  0  0  0  0  0  0  0
    1.9128   -0.0246    0.1357 C   0  0  0  0  0  0  0  0  0  0  0  0
    2.8616    0.4666   -0.7005 F   0  0  0  0  0  0  0  0  0  0  0  0
    2.1067   -1.3652    0.1976 F   0  0  0  0  0  0  0  0  0  0  0  0
  1  2  1  0
  2  3  1  0
  3  4  1  0
  4  5  1  0
  4  6  1  0
M  END
$$$$
