
     RDKit          3D

  9  8  0  0  0  0  0  0  0  0999 V2000
    1.0207   -0.3978    1.6122 F   0  0  0  0  0  0  0  0  0  0  0  0
    1.1778    0.0015    0.3357 C   0  0  0  0  0  0  0  0  0  0  0  0
    2.3138   -0.5778   -0.1232 F   0  0  0  0  0  0  0  0  0  0  0  0
    1.3844    1.3322    0.3286 F   0  0  0  0  0  0  0  0  0  0  0  0
    0.0327   -0.3991   -0.5287 C   0  0  0  0  0  0  0  0  0  0  0  0
   -1.1985    0.2518   -0.0002 C   0  0  0  0  0  0  0  0  0  0  0  0
   -2.2586   -0.0962   -0.7696 F   0  0  0  0  0  0  0  0  0  0  0  0
   -1.4825   -0.1341    1.2584 F   0  0  0  0  0  0  0  0  0  0  0  0
   -1.1188    1.5959   -0.0252 F   0  0  0  0  0  0  0  0  0  0  0  0
  1  2  1  0
  2  3  1  0
  2  4  1  0
  2  5  1  0
  5  6  1  0
  6  7  1  0
  6  8  1  0
  6  9  1  0
M  END
$$$$
