
     RDKit          3D

  6  5  0  0  0  0  0  0  0  0999 V2000
    1.2790    0.0511   -0.1345 C   0  0  0  0  0  0  0  0  0  0  0  0
   -0.0478   -0.1751    0.5571 C   0  0  0  0  0  0  0  0  0  0  0  0
   -0.0835   -1.4476    1.0376 F   0  0  0  0  0  0  0  0  0  0  0  0
   -0.1289    0.6414    1.6401 F   0  0  0  0  0  0  0  0  0  0  0  0
   -1.2457    0.0472   -0.3483 C   0  0  0  0  0  0  0  0  0  0  0  0
   -1.1873    1.2768   -0.9293 F   0  0  0  0  0  0  0  0  0  0  0  0
  1  2  1  0
  2  3  1  0
  2  4  1  0
  2  5  1  0
  5  6  1  0
M  END
$$$$
