
     RDKit          3D

 12 11  0  0  0  0  0  0  0  0999 V2000
   -3.7149    1.5812    0.9492 C   0  0  0  0  0  0  0  0  0  0  0  0
   -3.8132    0.6064   -0.2141 C   0  0  0  0  0  0  0  0  0  0  0  0
   -2.5355    0.5233   -1.0523 C   0  0  0  0  0  0  0  0  0  0  0  0
   -1.3448   -0.0616   -0.2874 C   0  0  0  0  0  0  0  0  0  0  0  0
   -0.1257   -0.2172   -1.2009 C   0  0  0  0  0  0  0  0  0  0  0  0
    1.0637   -0.9059   -0.5222 C   0  0  0  0  0  0  0  0  0  0  0  0
    1.7103   -0.0586    0.5759 C   0  0  0  0  0  0  0  0  0  0  0  0
    2.8577   -0.7630    1.3168 C   0  0  0  0  0  0  0  0  0  0  0  0
    4.0741   -1.1521    0.4770 C   0  0  0  0  0  0  0  0  0  0  0  0
    3.7132   -2.1045   -0.4281 F   0  0  0  0  0  0  0  0  0  0  0  0
    4.6823   -0.0116   -0.2226 C   0  0  0  0  0  0  0  0  0  0  0  0
    5.1686    0.9018   -0.7509 N   0  0  0  0  0  0  0  0  0  0  0  0
  1  2  1  0
  2  3  1  0
  3  4  1  0
  4  5  1  0
  5  6  1  0
  6  7  1  0
  7  8  1  0
  8  9  1  0
  9 10  1  0
  9 11  1  0
 11 12  3  0
M  END
$$$$
