
     RDKit          3D

 12 12  0  0  0  0  0  0  0  0999 V2000
   -2.0382    1.8127    0.2645 O   0  0  0  0  0  0  0  0  0  0  0  0
   -1.6753    0.6342    0.2246 C   0  0  0  0  0  0  0  0  0  0  0  0
   -0.2223    0.3388    0.0277 C   0  0  0  0  0  0  0  0  0  0  0  0
    0.2876   -0.9652   -0.0313 C   0  0  0  0  0  0  0  0  0  0  0  0
    1.6573   -1.1774   -0.2176 C   0  0  0  0  0  0  0  0  0  0  0  0
    2.5254   -0.0949   -0.3459 C   0  0  0  0  0  0  0  0  0  0  0  0
    2.0288    1.2047   -0.2887 C   0  0  0  0  0  0  0  0  0  0  0  0
    0.6620    1.4215   -0.1029 C   0  0  0  0  0  0  0  0  0  0  0  0
   -2.6336   -0.5364    0.3661 C   0  0  0  0  0  0  0  0  0  0  0  0
   -2.3274   -1.3318    1.4305 F   0  0  0  0  0  0  0  0  0  0  0  0
   -3.9285   -0.1546    0.5406 F   0  0  0  0  0  0  0  0  0  0  0  0
   -2.6237   -1.3501   -0.7280 F   0  0  0  0  0  0  0  0  0  0  0  0
  1  2  2  0
  2  3  1  0
  3  4  2  0
  4  5  1  0
  5  6  2  0
  6  7  1  0
  7  8  2  0
  2  9  1  0
  9 10  1  0
  9 11  1  0
  9 12  1  0
  8  3  1  0
M  END
$$$$
