
     RDKit          3D

  9  8  0  0  0  0  0  0  0  0999 V2000
   -1.8152   -0.2064   -0.6750 C   0  0  0  0  0  0  0  0  0  0  0  0
   -0.4989    0.4456   -0.2985 C   0  0  0  0  0  0  0  0  0  0  0  0
   -0.7569    1.4518    0.5702 F   0  0  0  0  0  0  0  0  0  0  0  0
    0.0308    1.0058   -1.4118 F   0  0  0  0  0  0  0  0  0  0  0  0
    0.4706   -0.5339    0.3072 C   0  0  0  0  0  0  0  0  0  0  0  0
    1.7531    0.1606    0.6606 C   0  0  0  0  0  0  0  0  0  0  0  0
    2.6117   -0.7385    1.2042 F   0  0  0  0  0  0  0  0  0  0  0  0
    2.3678    0.6874   -0.4160 F   0  0  0  0  0  0  0  0  0  0  0  0
    1.5769    1.1351    1.5738 F   0  0  0  0  0  0  0  0  0  0  0  0
  1  2  1  0
  2  3  1  0
  2  4  1  0
  2  5  1  0
  5  6  1  0
  6  7  1  0
  6  8  1  0
  6  9  1  0
M  END
$$$$
