
     RDKit          3D

  7  6  0  0  0  0  0  0  0  0999 V2000
   -1.6333   -1.3473   -0.1384 C   0  0  0  0  0  0  0  0  0  0  0  0
   -1.3909    0.1299    0.1241 C   0  0  0  0  0  0  0  0  0  0  0  0
    0.0650    0.4906    0.4877 C   0  0  0  0  0  0  0  0  0  0  0  0
    1.0673    0.1806   -0.6441 C   0  0  0  0  0  0  0  0  0  0  0  0
    1.7373   -1.1800   -0.4963 C   0  0  0  0  0  0  0  0  0  0  0  0
    0.1265    1.9837    0.8348 C   0  0  0  0  0  0  0  0  0  0  0  0
   -0.2030    2.7210   -0.2591 F   0  0  0  0  0  0  0  0  0  0  0  0
  1  2  1  0
  2  3  1  0
  3  4  1  0
  4  5  1  0
  3  6  1  0
  6  7  1  0
M  END
$$$$
