
     RDKit          3D

  5  5  0  0  0  0  0  0  0  0999 V2000
   -1.5030   -0.6938   -1.2471 F   0  0  0  0  0  0  0  0  0  0  0  0
   -1.0616   -0.1228   -0.1012 C   0  0  0  0  0  0  0  0  0  0  0  0
    0.0782   -0.8816    0.6184 C   0  0  0  0  0  0  0  0  0  0  0  0
    1.0670   -0.0076   -0.1764 C   0  0  0  0  0  0  0  0  0  0  0  0
   -0.0577    1.0395   -0.2865 C   0  0  0  0  0  0  0  0  0  0  0  0
  1  2  1  0
  2  3  1  0
  3  4  1  0
  4  5  1  0
  5  2  1  0
M  END
$$$$
