
     RDKit          3D

  6  5  0  0  0  0  0  0  0  0999 V2000
   -1.6451   -0.8728    0.2794 F   0  0  0  0  0  0  0  0  0  0  0  0
   -0.3173   -0.6477    0.1754 C   0  0  0  0  0  0  0  0  0  0  0  0
    0.5432   -1.6639    0.4026 F   0  0  0  0  0  0  0  0  0  0  0  0
    0.1204    0.5724   -0.1493 C   0  0  0  0  0  0  0  0  0  0  0  0
   -0.7918    1.5486   -0.3645 F   0  0  0  0  0  0  0  0  0  0  0  0
    2.0907    1.0636   -0.3435 I   0  0  0  0  0  0  0  0  0  0  0  0
  1  2  1  0
  2  3  1  0
  2  4  2  3
  4  5  1  0
  4  6  1  0
M  END
$$$$
