
     RDKit          3D

 15 15  0  0  0  0  0  0  0  0999 V2000
   -2.3822    1.5491   -0.7496 C   0  0  0  0  0  0  0  0  0  0  0  0
   -1.4092    0.7385    0.0523 C   0  0  0  0  0  0  0  0  0  0  0  0
   -1.6840   -0.4004    0.7174 C   0  0  0  0  0  0  0  0  0  0  0  0
   -2.9960   -1.0935    0.8286 C   0  0  0  0  0  0  0  0  0  0  0  0
   -4.0584   -0.2620    0.7180 F   0  0  0  0  0  0  0  0  0  0  0  0
   -3.1252   -2.0436   -0.1289 F   0  0  0  0  0  0  0  0  0  0  0  0
   -3.1116   -1.7208    2.0250 F   0  0  0  0  0  0  0  0  0  0  0  0
   -0.0339    1.3242    0.1310 C   0  0  0  0  0  0  0  0  0  0  0  0
    0.1076    2.5273    0.3277 O   0  0  0  0  0  0  0  0  0  0  0  0
    1.1575    0.4506   -0.0371 C   0  0  0  0  0  0  0  0  0  0  0  0
    2.3353    0.7997    0.6351 C   0  0  0  0  0  0  0  0  0  0  0  0
    3.4793    0.0120    0.4993 C   0  0  0  0  0  0  0  0  0  0  0  0
    3.4540   -1.1185   -0.3168 C   0  0  0  0  0  0  0  0  0  0  0  0
    2.2895   -1.4592   -1.0051 C   0  0  0  0  0  0  0  0  0  0  0  0
    1.1421   -0.6741   -0.8723 C   0  0  0  0  0  0  0  0  0  0  0  0
  1  2  1  0
  2  3  2  0
  3  4  1  0
  4  5  1  0
  4  6  1  0
  4  7  1  0
  2  8  1  0
  8  9  2  0
  8 10  1  0
 10 11  2  0
 11 12  1  0
 12 13  2  0
 13 14  1  0
 14 15  2  0
 15 10  1  0
M  END
$$$$
