
     RDKit          3D

  4  4  0  0  0  0  0  0  0  0999 V2000
   -1.1719   -1.2877    0.8458 F   0  0  0  0  0  0  0  0  0  0  0  0
   -0.5167   -0.6318   -0.1787 C   0  0  0  0  0  0  0  0  0  0  0  0
    0.8649   -0.1340    0.1015 C   0  0  0  0  0  0  0  0  0  0  0  0
   -0.2810    0.8350   -0.0109 C   0  0  0  0  0  0  0  0  0  0  0  0
  1  2  1  0
  2  3  1  0
  3  4  1  0
  4  2  1  0
M  END
$$$$
