
     RDKit          3D

 20 19  0  0  0  0  0  0  0  0999 V2000
    2.4608    0.8166    0.7026 F   0  0  0  0  0  0  0  0  0  0  0  0
    2.1754   -0.2952   -0.0028 C   0  0  0  0  0  0  0  0  0  0  0  0
    3.2118   -0.4932   -0.8533 F   0  0  0  0  0  0  0  0  0  0  0  0
    2.1683   -1.3397    0.8482 F   0  0  0  0  0  0  0  0  0  0  0  0
    0.8547   -0.1683   -0.7759 C   0  0  0  0  0  0  0  0  0  0  0  0
    1.0091    0.8429   -1.6851 F   0  0  0  0  0  0  0  0  0  0  0  0
    0.7192   -1.2950   -1.5408 F   0  0  0  0  0  0  0  0  0  0  0  0
   -0.4303    0.0564   -0.0283 C   0  0  0  0  0  0  0  0  0  0  0  0
   -1.5409    0.1414   -1.0003 C   0  0  0  0  0  0  0  0  0  0  0  0
   -1.6675   -0.9856   -1.7316 F   0  0  0  0  0  0  0  0  0  0  0  0
   -1.3772    1.1550   -1.8761 F   0  0  0  0  0  0  0  0  0  0  0  0
   -2.7381    0.3435   -0.4122 F   0  0  0  0  0  0  0  0  0  0  0  0
   -0.7343   -1.0449    0.9012 C   0  0  0  0  0  0  0  0  0  0  0  0
   -1.9406   -0.9222    1.4869 F   0  0  0  0  0  0  0  0  0  0  0  0
   -0.7149   -2.2435    0.2859 F   0  0  0  0  0  0  0  0  0  0  0  0
    0.1623   -1.1139    1.9045 F   0  0  0  0  0  0  0  0  0  0  0  0
   -0.4147    1.3117    0.7421 C   0  0  0  0  0  0  0  0  0  0  0  0
   -0.0892    2.3702   -0.0255 F   0  0  0  0  0  0  0  0  0  0  0  0
   -1.5997    1.5917    1.3172 F   0  0  0  0  0  0  0  0  0  0  0  0
    0.4859    1.2723    1.7434 F   0  0  0  0  0  0  0  0  0  0  0  0
  1  2  1  0
  2  3  1  0
  2  4  1  0
  2  5  1  0
  5  6  1  0
  5  7  1  0
  5  8  1  0
  8  9  1  0
  9 10  1  0
  9 11  1  0
  9 12  1  0
  8 13  1  0
 13 14  1  0
 13 15  1  0
 13 16  1  0
  8 17  1  0
 17 18  1  0
 17 19  1  0
 17 20  1  0
M  END
$$$$
