
     RDKit          3D

  8  7  0  0  0  0  0  0  0  0999 V2000
    1.1367    1.4354   -0.2053 O   0  0  0  0  0  0  0  0  0  0  0  0
    1.0556    0.2336   -0.0367 C   0  0  0  0  0  0  0  0  0  0  0  0
    2.1777   -0.5114    0.0634 O   0  0  0  0  0  0  0  0  0  0  0  0
   -0.1653   -0.6075    0.0857 C   0  0  0  0  0  0  0  0  0  0  0  0
   -1.3848    0.2535   -0.0303 C   0  0  0  0  0  0  0  0  0  0  0  0
   -2.4929   -0.5228    0.0827 F   0  0  0  0  0  0  0  0  0  0  0  0
   -1.4573    1.1782    0.9485 F   0  0  0  0  0  0  0  0  0  0  0  0
   -1.4656    0.8739   -1.2248 F   0  0  0  0  0  0  0  0  0  0  0  0
  1  2  2  0
  2  3  1  0
  2  4  1  0
  4  5  1  0
  5  6  1  0
  5  7  1  0
  5  8  1  0
M  END
$$$$
