
     RDKit          3D

  9  9  0  0  0  0  0  0  0  0999 V2000
    2.7292   -1.6586    0.2082 F   0  0  0  0  0  0  0  0  0  0  0  0
    2.8695   -0.3272    0.0882 C   0  0  0  0  0  0  0  0  0  0  0  0
    1.8517    0.5319   -0.0117 C   0  0  0  0  0  0  0  0  0  0  0  0
    0.4074    0.2384   -0.0138 C   0  0  0  0  0  0  0  0  0  0  0  0
   -0.4870    1.3152   -0.1311 C   0  0  0  0  0  0  0  0  0  0  0  0
   -1.8699    1.1088   -0.1400 C   0  0  0  0  0  0  0  0  0  0  0  0
   -2.3818   -0.1803   -0.0315 C   0  0  0  0  0  0  0  0  0  0  0  0
   -1.5112   -1.2600    0.0856 C   0  0  0  0  0  0  0  0  0  0  0  0
   -0.1276   -1.0516    0.0943 C   0  0  0  0  0  0  0  0  0  0  0  0
  1  2  1  0
  2  3  2  0
  3  4  1  0
  4  5  2  0
  5  6  1  0
  6  7  2  0
  7  8  1  0
  8  9  2  0
  9  4  1  0
M  END
$$$$
