
     RDKit          3D

  9  8  0  0  0  0  0  0  0  0999 V2000
    1.1297   -0.4030    1.6477 F   0  0  0  0  0  0  0  0  0  0  0  0
    1.2658   -0.0026    0.3708 C   0  0  0  0  0  0  0  0  0  0  0  0
    2.3784   -0.6076   -0.1135 F   0  0  0  0  0  0  0  0  0  0  0  0
    1.5088    1.3203    0.3657 F   0  0  0  0  0  0  0  0  0  0  0  0
    0.0904   -0.3799   -0.4840 C   0  0  0  0  0  0  0  0  0  0  0  0
   -1.2263    0.2355   -0.0460 C   0  0  0  0  0  0  0  0  0  0  0  0
   -2.5062   -0.3359   -1.1926 Cl  0  0  0  0  0  0  0  0  0  0  0  0
   -1.7346   -0.2845    1.5867 Cl  0  0  0  0  0  0  0  0  0  0  0  0
   -1.2275    2.0210   -0.1284 Cl  0  0  0  0  0  0  0  0  0  0  0  0
  1  2  1  0
  2  3  1  0
  2  4  1  0
  2  5  1  0
  5  6  1  0
  6  7  1  0
  6  8  1  0
  6  9  1  0
M  END
$$$$
