
     RDKit          3D

  5  4  0  0  0  0  0  0  0  0999 V2000
   -1.8232    0.2250   -0.6131 F   0  0  0  0  0  0  0  0  0  0  0  0
   -0.6350   -0.3582   -0.3668 C   0  0  0  0  0  0  0  0  0  0  0  0
    0.4827    0.3544   -0.2396 C   0  0  0  0  0  0  0  0  0  0  0  0
    0.4155    1.6986   -0.3623 F   0  0  0  0  0  0  0  0  0  0  0  0
    2.2973   -0.4895    0.1327 I   0  0  0  0  0  0  0  0  0  0  0  0
  1  2  1  0
  2  3  2  0
  3  4  1  0
  3  5  1  0
M  END
$$$$
