
     RDKit          3D

 10  9  0  0  0  0  0  0  0  0999 V2000
   -3.1453    0.8283    1.3184 C   0  0  0  0  0  0  0  0  0  0  0  0
   -2.9955   -0.1923    0.2061 C   0  0  0  0  0  0  0  0  0  0  0  0
   -1.7983    0.0644   -0.5421 O   0  0  0  0  0  0  0  0  0  0  0  0
   -0.6569   -0.5204   -0.0664 C   0  0  0  0  0  0  0  0  0  0  0  0
   -0.5941   -1.1798    0.9658 O   0  0  0  0  0  0  0  0  0  0  0  0
    0.5382   -0.1658   -0.9723 C   0  0  0  0  0  0  0  0  0  0  0  0
    0.1933   -0.2180   -2.2942 F   0  0  0  0  0  0  0  0  0  0  0  0
    1.6657   -1.0175   -0.8396 O   0  0  0  0  0  0  0  0  0  0  0  0
    2.5044   -0.6914    0.2636 C   0  0  0  0  0  0  0  0  0  0  0  0
    3.5295    0.3557   -0.1352 C   0  0  0  0  0  0  0  0  0  0  0  0
  1  2  1  0
  2  3  1  0
  3  4  1  0
  4  5  2  0
  4  6  1  0
  6  7  1  0
  6  8  1  0
  8  9  1  0
  9 10  1  0
M  END
$$$$
