
     RDKit          3D

 10  9  0  0  0  0  0  0  0  0999 V2000
   -4.0964   -0.1326    0.5387 C   0  0  0  0  0  0  0  0  0  0  0  0
   -2.6175   -0.4512    0.3964 C   0  0  0  0  0  0  0  0  0  0  0  0
   -1.9542    0.4349   -0.6499 C   0  0  0  0  0  0  0  0  0  0  0  0
   -0.4847    0.0918   -0.7830 C   0  0  0  0  0  0  0  0  0  0  0  0
   -0.1158   -0.7634   -1.5901 O   0  0  0  0  0  0  0  0  0  0  0  0
    0.4849    0.8823    0.0911 C   0  0  0  0  0  0  0  0  0  0  0  0
   -0.1255    1.2515    1.2609 F   0  0  0  0  0  0  0  0  0  0  0  0
    1.7385    0.0978    0.4708 C   0  0  0  0  0  0  0  0  0  0  0  0
    2.7852    0.0581   -0.6441 C   0  0  0  0  0  0  0  0  0  0  0  0
    4.0299   -0.6997   -0.2078 C   0  0  0  0  0  0  0  0  0  0  0  0
  1  2  1  0
  2  3  1  0
  3  4  1  0
  4  5  2  0
  4  6  1  0
  6  7  1  0
  6  8  1  0
  8  9  1  0
  9 10  1  0
M  END
$$$$
