
     RDKit          3D

  6  5  0  0  0  0  0  0  0  0999 V2000
   -1.3291    0.7680   -0.9742 F   0  0  0  0  0  0  0  0  0  0  0  0
   -0.8291   -0.0886   -0.0391 C   0  0  0  0  0  0  0  0  0  0  0  0
    0.6907    0.0381    0.0683 C   0  0  0  0  0  0  0  0  0  0  0  0
    1.1519    1.6978    0.5522 Cl  0  0  0  0  0  0  0  0  0  0  0  0
    1.2977   -1.1068    1.3087 Cl  0  0  0  0  0  0  0  0  0  0  0  0
    1.4676   -0.3531   -1.4953 Cl  0  0  0  0  0  0  0  0  0  0  0  0
  1  2  1  0
  2  3  1  0
  3  4  1  0
  3  5  1  0
  3  6  1  0
M  END
$$$$
