
     RDKit          3D

  4  3  0  0  0  0  0  0  0  0999 V2000
    1.3139   -0.1342   -0.2467 C   0  0  0  0  0  0  0  0  0  0  0  0
    0.2802    1.0801    0.6035 S   0  0  0  0  0  0  0  0  0  0  0  0
   -1.2934    0.2041    0.4930 C   0  0  0  0  0  0  0  0  0  0  0  0
   -1.5146   -0.1944   -0.7862 F   0  0  0  0  0  0  0  0  0  0  0  0
  1  2  1  0
  2  3  1  0
  3  4  1  0
M  END
$$$$
