
     RDKit          3D

  9  8  0  0  0  0  0  0  0  0999 V2000
   -0.4717    1.4966   -0.5353 C   0  0  0  0  0  0  0  0  0  0  0  0
   -0.6051    0.1119    0.0909 C   0  0  0  0  0  0  0  0  0  0  0  0
   -2.0672   -0.3383    0.0712 C   0  0  0  0  0  0  0  0  0  0  0  0
    0.2707   -0.8866   -0.6613 C   0  0  0  0  0  0  0  0  0  0  0  0
   -0.1843   -1.6061   -1.5534 O   0  0  0  0  0  0  0  0  0  0  0  0
    1.7171   -1.0257   -0.3651 C   0  0  0  0  0  0  0  0  0  0  0  0
    2.4306   -0.3317    0.5202 C   0  0  0  0  0  0  0  0  0  0  0  0
    1.8849    0.6342    1.2839 F   0  0  0  0  0  0  0  0  0  0  0  0
    3.7468   -0.6036    0.6493 F   0  0  0  0  0  0  0  0  0  0  0  0
  1  2  1  0
  2  3  1  0
  2  4  1  0
  4  5  2  0
  4  6  1  0
  6  7  2  3
  7  8  1  0
  7  9  1  0
M  END
$$$$
