
     RDKit          3D

 13 12  0  0  0  0  0  0  0  0999 V2000
    3.3020    0.9894   -1.7287 C   0  0  0  0  0  0  0  0  0  0  0  0
    3.6790   -0.2071   -0.8666 C   0  0  0  0  0  0  0  0  0  0  0  0
    2.5250   -1.1939   -0.6685 C   0  0  0  0  0  0  0  0  0  0  0  0
    1.7536   -1.0294    0.6468 C   0  0  0  0  0  0  0  0  0  0  0  0
    1.0360    0.3128    0.7864 C   0  0  0  0  0  0  0  0  0  0  0  0
    0.1827    0.4208    2.0551 C   0  0  0  0  0  0  0  0  0  0  0  0
   -0.9716   -0.5804    2.1750 C   0  0  0  0  0  0  0  0  0  0  0  0
   -1.9421   -0.6212    0.9900 C   0  0  0  0  0  0  0  0  0  0  0  0
   -2.6353    0.7194    0.7293 C   0  0  0  0  0  0  0  0  0  0  0  0
   -3.7256    0.6442   -0.3435 C   0  0  0  0  0  0  0  0  0  0  0  0
   -4.7035   -0.1968    0.1109 F   0  0  0  0  0  0  0  0  0  0  0  0
   -3.2854    0.1452   -1.7149 C   0  0  0  0  0  0  0  0  0  0  0  0
   -2.0391    1.1776   -2.4507 Cl  0  0  0  0  0  0  0  0  0  0  0  0
  1  2  1  0
  2  3  1  0
  3  4  1  0
  4  5  1  0
  5  6  1  0
  6  7  1  0
  7  8  1  0
  8  9  1  0
  9 10  1  0
 10 11  1  0
 10 12  1  0
 12 13  1  0
M  END
$$$$
