
     RDKit          3D

 10  9  0  0  0  0  0  0  0  0999 V2000
    2.9565    0.8371    0.5494 C   0  0  0  0  0  0  0  0  0  0  0  0
    1.6379    0.4853    1.2207 C   0  0  0  0  0  0  0  0  0  0  0  0
    0.4101    1.0089    0.4700 C   0  0  0  0  0  0  0  0  0  0  0  0
    0.2446    0.3764   -0.9110 C   0  0  0  0  0  0  0  0  0  0  0  0
   -1.3213    0.9047   -1.6850 S   0  0  0  0  0  0  0  0  0  0  0  0
   -2.3718   -0.5723   -1.3684 C   0  0  0  0  0  0  0  0  0  0  0  0
   -2.6187   -0.9565    0.0826 C   0  0  0  0  0  0  0  0  0  0  0  0
   -3.5396   -1.9483    0.1495 F   0  0  0  0  0  0  0  0  0  0  0  0
   -3.0871    0.0756    0.8148 F   0  0  0  0  0  0  0  0  0  0  0  0
   -1.4977   -1.4206    0.6778 F   0  0  0  0  0  0  0  0  0  0  0  0
  1  2  1  0
  2  3  1  0
  3  4  1  0
  4  5  1  0
  5  6  1  0
  6  7  1  0
  7  8  1  0
  7  9  1  0
  7 10  1  0
M  END
$$$$
