
     RDKit          3D

 14 14  0  0  0  0  0  0  0  0999 V2000
   -0.8752   -1.7670   -0.9876 O   0  0  0  0  0  0  0  0  0  0  0  0
   -0.5331   -0.7894   -0.3417 C   0  0  0  0  0  0  0  0  0  0  0  0
   -1.3698    0.0180    0.3540 O   0  0  0  0  0  0  0  0  0  0  0  0
   -2.7549   -0.3714    0.2778 C   0  0  0  0  0  0  0  0  0  0  0  0
   -3.6259    0.5780    1.0794 C   0  0  0  0  0  0  0  0  0  0  0  0
   -3.2801    0.5871    2.3861 F   0  0  0  0  0  0  0  0  0  0  0  0
   -3.5364    1.8451    0.6175 F   0  0  0  0  0  0  0  0  0  0  0  0
   -4.9264    0.2110    1.0068 F   0  0  0  0  0  0  0  0  0  0  0  0
    0.8759   -0.3282   -0.2179 C   0  0  0  0  0  0  0  0  0  0  0  0
    1.2352    0.8000    0.5325 C   0  0  0  0  0  0  0  0  0  0  0  0
    2.5746    1.1891    0.6151 C   0  0  0  0  0  0  0  0  0  0  0  0
    3.5584    0.4567   -0.0486 C   0  0  0  0  0  0  0  0  0  0  0  0
    3.2082   -0.6664   -0.7966 C   0  0  0  0  0  0  0  0  0  0  0  0
    1.8710   -1.0589   -0.8820 C   0  0  0  0  0  0  0  0  0  0  0  0
  1  2  2  0
  2  3  1  0
  3  4  1  0
  4  5  1  0
  5  6  1  0
  5  7  1  0
  5  8  1  0
  2  9  1  0
  9 10  2  0
 10 11  1  0
 11 12  2  0
 12 13  1  0
 13 14  2  0
 14  9  1  0
M  END
$$$$
