
     RDKit          3D

  5  4  0  0  0  0  0  0  0  0999 V2000
   -0.6572    1.2171   -0.2090 F   0  0  0  0  0  0  0  0  0  0  0  0
   -0.1131   -0.0046   -0.0011 C   0  0  0  0  0  0  0  0  0  0  0  0
   -0.6022   -0.4704    1.1718 F   0  0  0  0  0  0  0  0  0  0  0  0
   -0.5668   -0.8210   -0.9807 F   0  0  0  0  0  0  0  0  0  0  0  0
    1.9393    0.0788    0.0190 I   0  0  0  0  0  0  0  0  0  0  0  0
  1  2  1  0
  2  3  1  0
  2  4  1  0
  2  5  1  0
M  END
$$$$
