
     RDKit          3D

  5  4  0  0  0  0  0  0  0  0999 V2000
   -1.4324   -1.0035    0.4685 F   0  0  0  0  0  0  0  0  0  0  0  0
   -0.8002    0.1164    0.0168 C   0  0  0  0  0  0  0  0  0  0  0  0
    0.7056   -0.0807    0.0902 C   0  0  0  0  0  0  0  0  0  0  0  0
    1.2446   -1.3132   -1.0816 Cl  0  0  0  0  0  0  0  0  0  0  0  0
    1.5523    1.4534   -0.2339 Cl  0  0  0  0  0  0  0  0  0  0  0  0
  1  2  1  0
  2  3  1  0
  3  4  1  0
  3  5  1  0
M  END
$$$$
