
     RDKit          3D

 27 27  0  0  0  0  0  0  0  0999 V2000
    2.9417   -0.0929   -0.2077 N   0  0  0  0  0  0  0  0  0  0  0  0
    1.5643   -0.0345   -0.0079 C   0  0  0  0  0  0  0  0  0  0  0  0
    0.8282   -1.2327    0.1821 C   0  0  0  0  0  0  0  0  0  0  0  0
    1.5516   -2.5675    0.3688 C   0  0  0  0  0  0  0  0  0  0  0  0
    1.5781   -2.9500    1.6738 F   0  0  0  0  0  0  0  0  0  0  0  0
    0.9676   -3.5781   -0.3291 F   0  0  0  0  0  0  0  0  0  0  0  0
    2.8578   -2.5738   -0.0263 F   0  0  0  0  0  0  0  0  0  0  0  0
   -0.6003   -1.1994    0.2215 C   0  0  0  0  0  0  0  0  0  0  0  0
   -1.3998   -2.4727    0.5290 C   0  0  0  0  0  0  0  0  0  0  0  0
   -1.7027   -3.1700   -0.5923 F   0  0  0  0  0  0  0  0  0  0  0  0
   -2.5728   -2.2094    1.1635 F   0  0  0  0  0  0  0  0  0  0  0  0
   -0.7562   -3.3302    1.3604 F   0  0  0  0  0  0  0  0  0  0  0  0
   -1.2868    0.0205   -0.0470 C   0  0  0  0  0  0  0  0  0  0  0  0
   -2.8074    0.0212   -0.2647 C   0  0  0  0  0  0  0  0  0  0  0  0
   -3.2581   -1.1341   -0.8199 F   0  0  0  0  0  0  0  0  0  0  0  0
   -3.2130    0.9879   -1.1291 F   0  0  0  0  0  0  0  0  0  0  0  0
   -3.4947    0.2037    0.8873 F   0  0  0  0  0  0  0  0  0  0  0  0
   -0.5485    1.2366   -0.1335 C   0  0  0  0  0  0  0  0  0  0  0  0
   -1.2923    2.5770   -0.2068 C   0  0  0  0  0  0  0  0  0  0  0  0
   -0.6085    3.6084    0.3493 F   0  0  0  0  0  0  0  0  0  0  0  0
   -1.5727    2.9374   -1.4822 F   0  0  0  0  0  0  0  0  0  0  0  0
   -2.4714    2.5547    0.4693 F   0  0  0  0  0  0  0  0  0  0  0  0
    0.8800    1.1978   -0.1721 C   0  0  0  0  0  0  0  0  0  0  0  0
    1.6595    2.4991   -0.3694 C   0  0  0  0  0  0  0  0  0  0  0  0
    2.9624    2.3380   -0.7420 F   0  0  0  0  0  0  0  0  0  0  0  0
    1.7098    3.2364    0.7724 F   0  0  0  0  0  0  0  0  0  0  0  0
    1.1139    3.2921   -1.3301 F   0  0  0  0  0  0  0  0  0  0  0  0
  1  2  1  0
  2  3  2  0
  3  4  1  0
  4  5  1  0
  4  6  1  0
  4  7  1  0
  3  8  1  0
  8  9  1  0
  9 10  1  0
  9 11  1  0
  9 12  1  0
  8 13  2  0
 13 14  1  0
 14 15  1  0
 14 16  1  0
 14 17  1  0
 13 18  1  0
 18 19  1  0
 19 20  1  0
 19 21  1  0
 19 22  1  0
 18 23  2  0
 23 24  1  0
 24 25  1  0
 24 26  1  0
 24 27  1  0
 23  2  1  0
M  END
$$$$
