
     RDKit          3D

  6  5  0  0  0  0  0  0  0  0999 V2000
   -1.5705   -0.9144   -0.3233 F   0  0  0  0  0  0  0  0  0  0  0  0
   -0.7615    0.1316   -0.0268 C   0  0  0  0  0  0  0  0  0  0  0  0
   -1.1496    0.6058    1.1763 F   0  0  0  0  0  0  0  0  0  0  0  0
   -0.9914    1.0869   -0.9528 F   0  0  0  0  0  0  0  0  0  0  0  0
    0.6847   -0.3206   -0.0216 C   0  0  0  0  0  0  0  0  0  0  0  0
    2.0395    1.2713    0.4388 I   0  0  0  0  0  0  0  0  0  0  0  0
  1  2  1  0
  2  3  1  0
  2  4  1  0
  2  5  1  0
  5  6  1  0
M  END
$$$$
