
     RDKit          3D

  5  4  0  0  0  0  0  0  0  0999 V2000
   -1.7695    0.3141   -0.4318 C   0  0  0  0  0  0  0  0  0  0  0  0
   -0.6688   -0.2214    0.1086 C   0  0  0  0  0  0  0  0  0  0  0  0
    0.6602    0.2753   -0.1526 C   0  0  0  0  0  0  0  0  0  0  0  0
    1.7601   -0.2557    0.3843 C   0  0  0  0  0  0  0  0  0  0  0  0
    1.7244   -1.3087    1.2223 F   0  0  0  0  0  0  0  0  0  0  0  0
  1  2  2  0
  2  3  1  0
  3  4  2  0
  4  5  1  0
M  END
$$$$
