
     RDKit          3D

  7  6  0  0  0  0  0  0  0  0999 V2000
   -1.2763   -0.1368   -0.2057 C   0  0  0  0  0  0  0  0  0  0  0  0
    0.0385   -0.3122    0.5318 C   0  0  0  0  0  0  0  0  0  0  0  0
   -0.0946    0.2609    1.7644 F   0  0  0  0  0  0  0  0  0  0  0  0
    1.2029    0.3132   -0.2199 C   0  0  0  0  0  0  0  0  0  0  0  0
    1.0298    1.6385   -0.4179 F   0  0  0  0  0  0  0  0  0  0  0  0
    2.3685    0.1413    0.4442 F   0  0  0  0  0  0  0  0  0  0  0  0
    1.3522   -0.2615   -1.4382 F   0  0  0  0  0  0  0  0  0  0  0  0
  1  2  1  0
  2  3  1  0
  2  4  1  0
  4  5  1  0
  4  6  1  0
  4  7  1  0
M  END
$$$$
