
     RDKit          3D

 10 10  0  0  0  0  0  0  0  0999 V2000
   -1.7953   -2.1614   -0.1737 F   0  0  0  0  0  0  0  0  0  0  0  0
   -0.8719   -1.1939   -0.0945 C   0  0  0  0  0  0  0  0  0  0  0  0
   -1.3015    0.1151   -0.0070 C   0  0  0  0  0  0  0  0  0  0  0  0
   -0.3298    1.0985    0.0738 C   0  0  0  0  0  0  0  0  0  0  0  0
   -0.7037    2.3822    0.1602 F   0  0  0  0  0  0  0  0  0  0  0  0
    1.0121    0.7648    0.0658 C   0  0  0  0  0  0  0  0  0  0  0  0
    1.9588    1.7089    0.1436 F   0  0  0  0  0  0  0  0  0  0  0  0
    1.3353   -0.5746   -0.0251 C   0  0  0  0  0  0  0  0  0  0  0  0
    2.6286   -0.9297   -0.0351 F   0  0  0  0  0  0  0  0  0  0  0  0
    0.4228   -1.5688   -0.1060 N   0  0  0  0  0  0  0  0  0  0  0  0
  1  2  1  0
  2  3  2  0
  3  4  1  0
  4  5  1  0
  4  6  2  0
  6  7  1  0
  6  8  1  0
  8  9  1  0
  8 10  2  0
 10  2  1  0
M  END
$$$$
