
     RDKit          3D

  5  4  0  0  0  0  0  0  0  0999 V2000
    2.5842   -0.0380    0.2572 F   0  0  0  0  0  0  0  0  0  0  0  0
    1.3473    0.3475   -0.1038 C   0  0  0  0  0  0  0  0  0  0  0  0
    0.2827   -0.4095    0.1647 C   0  0  0  0  0  0  0  0  0  0  0  0
   -1.1089   -0.0510   -0.2203 C   0  0  0  0  0  0  0  0  0  0  0  0
   -2.1583    0.1489    1.4025 Br  0  0  0  0  0  0  0  0  0  0  0  0
  1  2  1  0
  2  3  2  0
  3  4  1  0
  4  5  1  0
M  END
$$$$
