
     RDKit          3D

  9  9  0  0  0  0  0  0  0  0999 V2000
   -2.3813   -1.0136   -0.0592 F   0  0  0  0  0  0  0  0  0  0  0  0
   -1.1040   -0.6104   -0.0090 C   0  0  0  0  0  0  0  0  0  0  0  0
   -0.0246   -1.4312   -0.1741 O   0  0  0  0  0  0  0  0  0  0  0  0
    1.0825   -0.6403   -0.0517 C   0  0  0  0  0  0  0  0  0  0  0  0
    2.3453   -1.0783   -0.1515 F   0  0  0  0  0  0  0  0  0  0  0  0
    0.7085    0.6571    0.1866 C   0  0  0  0  0  0  0  0  0  0  0  0
    1.5255    1.6997    0.3590 F   0  0  0  0  0  0  0  0  0  0  0  0
   -0.6856    0.6762    0.2139 C   0  0  0  0  0  0  0  0  0  0  0  0
   -1.4664    1.7407    0.4175 F   0  0  0  0  0  0  0  0  0  0  0  0
  1  2  1  0
  2  3  1  0
  3  4  1  0
  4  5  1  0
  4  6  2  0
  6  7  1  0
  6  8  1  0
  8  9  1  0
  8  2  2  0
M  END
$$$$
