
     RDKit          3D

 11 10  0  0  0  0  0  0  0  0999 V2000
    2.3637   -0.1232   -0.0633 C   0  0  0  0  0  0  0  0  0  0  0  0
    1.4044    0.0683    0.9628 O   0  0  0  0  0  0  0  0  0  0  0  0
    0.1017   -0.3976    0.6144 C   0  0  0  0  0  0  0  0  0  0  0  0
   -0.4736   -0.8216    1.7631 F   0  0  0  0  0  0  0  0  0  0  0  0
    0.2375   -1.4894   -0.1777 F   0  0  0  0  0  0  0  0  0  0  0  0
   -0.7301    0.6657   -0.0613 C   0  0  0  0  0  0  0  0  0  0  0  0
   -0.8488    1.7670    0.7410 F   0  0  0  0  0  0  0  0  0  0  0  0
   -2.0835    0.0905   -0.3642 C   0  0  0  0  0  0  0  0  0  0  0  0
   -2.0021   -0.9659   -1.2055 F   0  0  0  0  0  0  0  0  0  0  0  0
   -2.8559    1.0141   -0.9912 F   0  0  0  0  0  0  0  0  0  0  0  0
   -2.7543   -0.3089    0.7344 F   0  0  0  0  0  0  0  0  0  0  0  0
  1  2  1  0
  2  3  1  0
  3  4  1  0
  3  5  1  0
  3  6  1  0
  6  7  1  0
  6  8  1  0
  8  9  1  0
  8 10  1  0
  8 11  1  0
M  END
$$$$
