
     RDKit          3D

 15 16  0  0  0  0  0  0  0  0999 V2000
    2.6177    0.2564   -0.2367 O   0  0  0  0  0  0  0  0  0  0  0  0
    1.8128    0.1653    0.6742 C   0  0  0  0  0  0  0  0  0  0  0  0
    2.1015   -0.1886    1.9490 O   0  0  0  0  0  0  0  0  0  0  0  0
    3.4831   -0.4535    2.1349 C   0  0  0  0  0  0  0  0  0  0  0  0
    3.6415   -0.7540    3.4520 F   0  0  0  0  0  0  0  0  0  0  0  0
    0.3507    0.4092    0.5549 C   0  0  0  0  0  0  0  0  0  0  0  0
   -0.2789    1.1230    1.5901 C   0  0  0  0  0  0  0  0  0  0  0  0
   -1.6384    1.4025    1.5234 C   0  0  0  0  0  0  0  0  0  0  0  0
   -2.3771    0.9747    0.4235 C   0  0  0  0  0  0  0  0  0  0  0  0
   -1.7734    0.2610   -0.6242 C   0  0  0  0  0  0  0  0  0  0  0  0
   -2.5488   -0.1600   -1.7174 C   0  0  0  0  0  0  0  0  0  0  0  0
   -1.9812   -0.8762   -2.7692 C   0  0  0  0  0  0  0  0  0  0  0  0
   -0.6285   -1.1831   -2.7408 C   0  0  0  0  0  0  0  0  0  0  0  0
    0.1569   -0.7717   -1.6612 C   0  0  0  0  0  0  0  0  0  0  0  0
   -0.3866   -0.0364   -0.5778 C   0  0  0  0  0  0  0  0  0  0  0  0
  1  2  2  0
  2  3  1  0
  3  4  1  0
  4  5  1  0
  2  6  1  0
  6  7  2  0
  7  8  1  0
  8  9  2  0
  9 10  1  0
 10 11  2  0
 11 12  1  0
 12 13  2  0
 13 14  1  0
 14 15  2  0
 15  6  1  0
 15 10  1  0
M  END
$$$$
