
     RDKit          3D

  7  6  0  0  0  0  0  0  0  0999 V2000
    1.9783    0.0016   -0.0969 C   0  0  0  0  0  0  0  0  0  0  0  0
    0.8557   -0.5155    0.4187 C   0  0  0  0  0  0  0  0  0  0  0  0
   -0.2703    0.3049    0.9974 C   0  0  0  0  0  0  0  0  0  0  0  0
   -1.6237    0.0416    0.3508 C   0  0  0  0  0  0  0  0  0  0  0  0
   -1.6265    0.3651   -0.9603 F   0  0  0  0  0  0  0  0  0  0  0  0
   -2.5850    0.7802    0.9529 F   0  0  0  0  0  0  0  0  0  0  0  0
   -1.9829   -1.2568    0.4627 F   0  0  0  0  0  0  0  0  0  0  0  0
  1  2  2  0
  2  3  1  0
  3  4  1  0
  4  5  1  0
  4  6  1  0
  4  7  1  0
M  END
$$$$
