
     RDKit          3D

  9  9  0  0  0  0  0  0  0  0999 V2000
    2.8752    0.1961   -0.5064 F   0  0  0  0  0  0  0  0  0  0  0  0
    1.5457    0.1027   -0.3684 C   0  0  0  0  0  0  0  0  0  0  0  0
    1.0285   -1.1354   -0.2506 N   0  0  0  0  0  0  0  0  0  0  0  0
   -0.3109   -1.2102   -0.1127 C   0  0  0  0  0  0  0  0  0  0  0  0
   -1.1215   -0.1071   -0.0905 C   0  0  0  0  0  0  0  0  0  0  0  0
   -2.4477   -0.2098    0.0475 F   0  0  0  0  0  0  0  0  0  0  0  0
   -0.4804    1.1021   -0.2191 C   0  0  0  0  0  0  0  0  0  0  0  0
   -1.2157    2.2244   -0.2055 F   0  0  0  0  0  0  0  0  0  0  0  0
    0.8502    1.2464   -0.3599 N   0  0  0  0  0  0  0  0  0  0  0  0
  1  2  1  0
  2  3  2  0
  3  4  1  0
  4  5  2  0
  5  6  1  0
  5  7  1  0
  7  8  1  0
  7  9  2  0
  9  2  1  0
M  END
$$$$
