
     RDKit          3D

  5  4  0  0  0  0  0  0  0  0999 V2000
   -1.2484   -0.0057    0.3272 C   0  0  0  0  0  0  0  0  0  0  0  0
   -0.0261    0.5325   -0.3653 C   0  0  0  0  0  0  0  0  0  0  0  0
   -0.0857    1.5273   -1.0904 O   0  0  0  0  0  0  0  0  0  0  0  0
    1.2629   -0.2271   -0.1740 C   0  0  0  0  0  0  0  0  0  0  0  0
    1.1889   -1.1215    0.8528 F   0  0  0  0  0  0  0  0  0  0  0  0
  1  2  1  0
  2  3  2  0
  2  4  1  0
  4  5  1  0
M  END
$$$$
