
     RDKit          3D

 27 27  0  0  0  0  0  0  0  0999 V2000
    2.9341    0.0660    0.2849 C   0  0  0  0  0  0  0  0  0  0  0  0
    1.4293    0.0291    0.0917 C   0  0  0  0  0  0  0  0  0  0  0  0
    0.7478   -1.2208    0.0843 C   0  0  0  0  0  0  0  0  0  0  0  0
    1.5374   -2.5376    0.0813 C   0  0  0  0  0  0  0  0  0  0  0  0
    0.8942   -3.5392   -0.5751 F   0  0  0  0  0  0  0  0  0  0  0  0
    2.7426   -2.4438   -0.5462 F   0  0  0  0  0  0  0  0  0  0  0  0
    1.7951   -2.9846    1.3361 F   0  0  0  0  0  0  0  0  0  0  0  0
   -0.6779   -1.2435    0.0712 C   0  0  0  0  0  0  0  0  0  0  0  0
   -1.4280   -2.5645    0.2894 C   0  0  0  0  0  0  0  0  0  0  0  0
   -2.6283   -2.3897    0.9025 F   0  0  0  0  0  0  0  0  0  0  0  0
   -0.7576   -3.4204    1.1049 F   0  0  0  0  0  0  0  0  0  0  0  0
   -1.6668   -3.2230   -0.8693 F   0  0  0  0  0  0  0  0  0  0  0  0
   -1.4059   -0.0300   -0.1120 C   0  0  0  0  0  0  0  0  0  0  0  0
   -2.9191   -0.0710   -0.3651 C   0  0  0  0  0  0  0  0  0  0  0  0
   -3.3085   -1.1954   -1.0215 F   0  0  0  0  0  0  0  0  0  0  0  0
   -3.3432    0.9463   -1.1602 F   0  0  0  0  0  0  0  0  0  0  0  0
   -3.6393   -0.0085    0.7795 F   0  0  0  0  0  0  0  0  0  0  0  0
   -0.7178    1.2197   -0.0883 C   0  0  0  0  0  0  0  0  0  0  0  0
   -1.5106    2.5329   -0.0406 C   0  0  0  0  0  0  0  0  0  0  0  0
   -0.8699    3.5081    0.6563 F   0  0  0  0  0  0  0  0  0  0  0  0
   -1.7681    3.0285   -1.2741 F   0  0  0  0  0  0  0  0  0  0  0  0
   -2.7060    2.4000    0.5924 F   0  0  0  0  0  0  0  0  0  0  0  0
    0.7079    1.2450   -0.0753 C   0  0  0  0  0  0  0  0  0  0  0  0
    1.4545    2.5752   -0.2497 C   0  0  0  0  0  0  0  0  0  0  0  0
    2.6634    2.4402   -0.8624 F   0  0  0  0  0  0  0  0  0  0  0  0
    1.6951    3.1883    0.9365 F   0  0  0  0  0  0  0  0  0  0  0  0
    0.7807    3.4626   -1.0284 F   0  0  0  0  0  0  0  0  0  0  0  0
  1  2  1  0
  2  3  2  0
  3  4  1  0
  4  5  1  0
  4  6  1  0
  4  7  1  0
  3  8  1  0
  8  9  1  0
  9 10  1  0
  9 11  1  0
  9 12  1  0
  8 13  2  0
 13 14  1  0
 14 15  1  0
 14 16  1  0
 14 17  1  0
 13 18  1  0
 18 19  1  0
 19 20  1  0
 19 21  1  0
 19 22  1  0
 18 23  2  0
 23 24  1  0
 24 25  1  0
 24 26  1  0
 24 27  1  0
 23  2  1  0
M  END
$$$$
