
     RDKit          3D

  9  8  0  0  0  0  0  0  0  0999 V2000
   -2.3310    0.5131   -0.2622 C   0  0  0  0  0  0  0  0  0  0  0  0
   -1.7459   -0.5120    0.6964 C   0  0  0  0  0  0  0  0  0  0  0  0
   -0.5638    0.0168    1.5122 C   0  0  0  0  0  0  0  0  0  0  0  0
    0.6409    0.5101    0.7027 C   0  0  0  0  0  0  0  0  0  0  0  0
    1.2716   -0.5790   -0.1710 C   0  0  0  0  0  0  0  0  0  0  0  0
    2.4956   -0.1144   -0.9455 C   0  0  0  0  0  0  0  0  0  0  0  0
    2.8365   -1.0792   -1.8405 F   0  0  0  0  0  0  0  0  0  0  0  0
    2.1969    0.9928   -1.6693 F   0  0  0  0  0  0  0  0  0  0  0  0
    4.0120    0.2276    0.2163 Br  0  0  0  0  0  0  0  0  0  0  0  0
  1  2  1  0
  2  3  1  0
  3  4  1  0
  4  5  1  0
  5  6  1  0
  6  7  1  0
  6  8  1  0
  6  9  1  0
M  END
$$$$
