
     RDKit          3D

  7  6  0  0  0  0  0  0  0  0999 V2000
   -1.2813   -0.2103   -0.2080 C   0  0  0  0  0  0  0  0  0  0  0  0
   -0.0691   -0.0206    0.6656 C   0  0  0  0  0  0  0  0  0  0  0  0
   -0.1711   -0.0544    1.8946 O   0  0  0  0  0  0  0  0  0  0  0  0
    1.2370    0.2068   -0.0756 C   0  0  0  0  0  0  0  0  0  0  0  0
    2.3086    0.3739    0.7435 F   0  0  0  0  0  0  0  0  0  0  0  0
    1.1803    1.3118   -0.8702 F   0  0  0  0  0  0  0  0  0  0  0  0
    1.5375   -0.8354   -0.8997 F   0  0  0  0  0  0  0  0  0  0  0  0
  1  2  1  0
  2  3  2  0
  2  4  1  0
  4  5  1  0
  4  6  1  0
  4  7  1  0
M  END
$$$$
