
     RDKit          3D

 14 13  0  0  0  0  0  0  0  0999 V2000
   -5.3119    0.5753    0.3983 C   0  0  0  0  0  0  0  0  0  0  0  0
   -4.1901    0.6866   -0.6223 C   0  0  0  0  0  0  0  0  0  0  0  0
   -3.6411   -0.6680   -1.0759 C   0  0  0  0  0  0  0  0  0  0  0  0
   -3.0416   -1.5439    0.0292 C   0  0  0  0  0  0  0  0  0  0  0  0
   -1.9119   -0.9065    0.8436 C   0  0  0  0  0  0  0  0  0  0  0  0
   -0.6997   -0.5128   -0.0029 C   0  0  0  0  0  0  0  0  0  0  0  0
    0.4385    0.0168    0.8725 C   0  0  0  0  0  0  0  0  0  0  0  0
    1.6508    0.4159    0.0275 C   0  0  0  0  0  0  0  0  0  0  0  0
    2.7900    0.9367    0.9054 C   0  0  0  0  0  0  0  0  0  0  0  0
    3.9809    1.4926    0.1149 C   0  0  0  0  0  0  0  0  0  0  0  0
    4.7118    0.5023   -0.7959 C   0  0  0  0  0  0  0  0  0  0  0  0
    3.8808    0.1677   -1.8234 F   0  0  0  0  0  0  0  0  0  0  0  0
    5.1505   -0.7638   -0.0806 C   0  0  0  0  0  0  0  0  0  0  0  0
    6.4198   -1.7565   -1.1845 Br  0  0  0  0  0  0  0  0  0  0  0  0
  1  2  1  0
  2  3  1  0
  3  4  1  0
  4  5  1  0
  5  6  1  0
  6  7  1  0
  7  8  1  0
  8  9  1  0
  9 10  1  0
 10 11  1  0
 11 12  1  0
 11 13  1  0
 13 14  1  0
M  END
$$$$
