
     RDKit          3D

 13 13  0  0  0  0  0  0  0  0999 V2000
   -0.8439   -2.0239   -1.0591 O   0  0  0  0  0  0  0  0  0  0  0  0
   -0.9012   -1.0234   -0.3441 C   0  0  0  0  0  0  0  0  0  0  0  0
   -2.2280   -0.3864   -0.0457 C   0  0  0  0  0  0  0  0  0  0  0  0
   -2.5138    0.6781   -1.0629 C   0  0  0  0  0  0  0  0  0  0  0  0
   -3.7177    1.2443   -0.8053 F   0  0  0  0  0  0  0  0  0  0  0  0
   -1.5989    1.6704   -1.0184 F   0  0  0  0  0  0  0  0  0  0  0  0
   -2.5557    0.2015   -2.3213 F   0  0  0  0  0  0  0  0  0  0  0  0
    0.3611   -0.4702    0.2414 C   0  0  0  0  0  0  0  0  0  0  0  0
    1.5569   -1.1611   -0.0072 C   0  0  0  0  0  0  0  0  0  0  0  0
    2.7670   -0.7009    0.5161 C   0  0  0  0  0  0  0  0  0  0  0  0
    2.7939    0.4549    1.2919 C   0  0  0  0  0  0  0  0  0  0  0  0
    1.6130    1.1508    1.5431 C   0  0  0  0  0  0  0  0  0  0  0  0
    0.3988    0.6922    1.0214 C   0  0  0  0  0  0  0  0  0  0  0  0
  1  2  2  0
  2  3  1  0
  3  4  1  0
  4  5  1  0
  4  6  1  0
  4  7  1  0
  2  8  1  0
  8  9  2  0
  9 10  1  0
 10 11  2  0
 11 12  1  0
 12 13  2  0
 13  8  1  0
M  END
$$$$
