
     RDKit          3D

 10  9  0  0  0  0  0  0  0  0999 V2000
    3.4151    0.4761    0.8384 C   0  0  0  0  0  0  0  0  0  0  0  0
    2.0975    0.1449    0.1531 C   0  0  0  0  0  0  0  0  0  0  0  0
    0.9029    0.6485    0.9681 C   0  0  0  0  0  0  0  0  0  0  0  0
   -0.4695    0.3848    0.3995 C   0  0  0  0  0  0  0  0  0  0  0  0
   -0.7670   -0.2459   -0.7484 C   0  0  0  0  0  0  0  0  0  0  0  0
   -2.1466   -0.5073   -1.3133 C   0  0  0  0  0  0  0  0  0  0  0  0
   -3.3713   -0.0276   -0.5435 C   0  0  0  0  0  0  0  0  0  0  0  0
   -3.4526   -0.5932    0.6806 F   0  0  0  0  0  0  0  0  0  0  0  0
   -4.5016   -0.3577   -1.2135 F   0  0  0  0  0  0  0  0  0  0  0  0
   -3.3767    1.3143   -0.3873 F   0  0  0  0  0  0  0  0  0  0  0  0
  1  2  1  0
  2  3  1  0
  3  4  1  0
  4  5  2  0
  5  6  1  0
  6  7  1  0
  7  8  1  0
  7  9  1  0
  7 10  1  0
M  END
$$$$
