
     RDKit          3D

 13 12  0  0  0  0  0  0  0  0999 V2000
    1.8782    0.1929   -1.4633 O   0  0  0  0  0  0  0  0  0  0  0  0
    1.4749   -0.0260   -0.3312 C   0  0  0  0  0  0  0  0  0  0  0  0
    1.8797   -1.1437    0.3134 O   0  0  0  0  0  0  0  0  0  0  0  0
    0.5067    0.8288    0.4701 C   0  0  0  0  0  0  0  0  0  0  0  0
    0.8956    2.1429    0.4446 F   0  0  0  0  0  0  0  0  0  0  0  0
    0.4955    0.4942    1.7964 F   0  0  0  0  0  0  0  0  0  0  0  0
   -0.8868    0.7104   -0.1031 C   0  0  0  0  0  0  0  0  0  0  0  0
   -0.9223    1.1534   -1.3930 F   0  0  0  0  0  0  0  0  0  0  0  0
   -1.7337    1.5375    0.5861 F   0  0  0  0  0  0  0  0  0  0  0  0
   -1.3906   -0.7169   -0.0196 C   0  0  0  0  0  0  0  0  0  0  0  0
   -1.3876   -1.1943    1.2451 F   0  0  0  0  0  0  0  0  0  0  0  0
   -2.6633   -0.8201   -0.4763 F   0  0  0  0  0  0  0  0  0  0  0  0
   -0.6463   -1.5671   -0.7662 F   0  0  0  0  0  0  0  0  0  0  0  0
  1  2  2  0
  2  3  1  0
  2  4  1  0
  4  5  1  0
  4  6  1  0
  4  7  1  0
  7  8  1  0
  7  9  1  0
  7 10  1  0
 10 11  1  0
 10 12  1  0
 10 13  1  0
M  END
$$$$
