
     RDKit          3D

  8  8  0  0  0  0  0  0  0  0999 V2000
    2.8476    0.9570   -0.3986 F   0  0  0  0  0  0  0  0  0  0  0  0
    2.2100   -0.1434    0.0944 C   0  0  0  0  0  0  0  0  0  0  0  0
    0.7102   -0.0496    0.0319 C   0  0  0  0  0  0  0  0  0  0  0  0
   -0.0806   -1.1074    0.5035 C   0  0  0  0  0  0  0  0  0  0  0  0
   -1.4733   -1.0285    0.4492 C   0  0  0  0  0  0  0  0  0  0  0  0
   -2.0881    0.1066   -0.0760 C   0  0  0  0  0  0  0  0  0  0  0  0
   -1.3116    1.1635   -0.5473 C   0  0  0  0  0  0  0  0  0  0  0  0
    0.0810    1.0862   -0.4938 C   0  0  0  0  0  0  0  0  0  0  0  0
  1  2  1  0
  2  3  1  0
  3  4  2  0
  4  5  1  0
  5  6  2  0
  6  7  1  0
  7  8  2  0
  8  3  1  0
M  END
$$$$
