
     RDKit          3D

 10  9  0  0  0  0  0  0  0  0999 V2000
    2.6817    0.9177    0.8152 C   0  0  0  0  0  0  0  0  0  0  0  0
    2.0229   -0.4514    0.8829 C   0  0  0  0  0  0  0  0  0  0  0  0
    0.5185   -0.4160    0.6104 C   0  0  0  0  0  0  0  0  0  0  0  0
    0.1733    0.0182   -0.8102 C   0  0  0  0  0  0  0  0  0  0  0  0
   -1.3030   -0.1376   -1.0717 C   0  0  0  0  0  0  0  0  0  0  0  0
   -1.7865   -1.0436   -1.7355 O   0  0  0  0  0  0  0  0  0  0  0  0
   -1.9972    0.8588   -0.4776 O   0  0  0  0  0  0  0  0  0  0  0  0
   -3.3909    0.6915   -0.6252 C   0  0  0  0  0  0  0  0  0  0  0  0
   -3.9645    1.8823   -0.3143 F   0  0  0  0  0  0  0  0  0  0  0  0
   -3.8096   -0.1929    0.3119 F   0  0  0  0  0  0  0  0  0  0  0  0
  1  2  1  0
  2  3  1  0
  3  4  1  0
  4  5  1  0
  5  6  2  0
  5  7  1  0
  7  8  1  0
  8  9  1  0
  8 10  1  0
M  END
$$$$
