
     RDKit          3D

  5  4  0  0  0  0  0  0  0  0999 V2000
    1.2986   -1.1999    0.1133 F   0  0  0  0  0  0  0  0  0  0  0  0
    0.7654    0.0509    0.0396 C   0  0  0  0  0  0  0  0  0  0  0  0
   -0.7442   -0.0306    0.0220 C   0  0  0  0  0  0  0  0  0  0  0  0
   -1.1725   -0.4973   -1.1790 F   0  0  0  0  0  0  0  0  0  0  0  0
   -1.2722    1.2123    0.1621 F   0  0  0  0  0  0  0  0  0  0  0  0
  1  2  1  0
  2  3  1  0
  3  4  1  0
  3  5  1  0
M  END
$$$$
