
     RDKit          3D

  8  7  0  0  0  0  0  0  0  0999 V2000
    1.1452   -1.3184    0.3946 F   0  0  0  0  0  0  0  0  0  0  0  0
    0.7609   -0.0658    0.0397 C   0  0  0  0  0  0  0  0  0  0  0  0
    1.3574    0.2064   -1.1489 F   0  0  0  0  0  0  0  0  0  0  0  0
    1.2978    0.7835    0.9524 F   0  0  0  0  0  0  0  0  0  0  0  0
   -0.7609    0.0658   -0.0397 C   0  0  0  0  0  0  0  0  0  0  0  0
   -1.1452    1.3184   -0.3945 F   0  0  0  0  0  0  0  0  0  0  0  0
   -1.3574   -0.2064    1.1489 F   0  0  0  0  0  0  0  0  0  0  0  0
   -1.2978   -0.7835   -0.9525 F   0  0  0  0  0  0  0  0  0  0  0  0
  1  2  1  0
  2  3  1  0
  2  4  1  0
  2  5  1  0
  5  6  1  0
  5  7  1  0
  5  8  1  0
M  END
$$$$
