
     RDKit          3D

 10 10  0  0  0  0  0  0  0  0999 V2000
    1.6664   -0.6927    3.3301 N   0  0  0  0  0  0  0  0  0  0  0  0
    1.6763   -0.1690    2.2918 C   0  0  0  0  0  0  0  0  0  0  0  0
    1.6811    0.5302    0.9927 C   0  0  0  0  0  0  0  0  0  0  0  0
    2.8464    0.2159    0.3453 F   0  0  0  0  0  0  0  0  0  0  0  0
    0.4558    0.2142    0.1601 C   0  0  0  0  0  0  0  0  0  0  0  0
   -0.7979    0.7523    0.4965 C   0  0  0  0  0  0  0  0  0  0  0  0
   -1.9254    0.4537   -0.2705 C   0  0  0  0  0  0  0  0  0  0  0  0
   -1.8146   -0.3835   -1.3788 C   0  0  0  0  0  0  0  0  0  0  0  0
   -0.5776   -0.9246   -1.7225 C   0  0  0  0  0  0  0  0  0  0  0  0
    0.5519   -0.6289   -0.9579 C   0  0  0  0  0  0  0  0  0  0  0  0
  1  2  3  0
  2  3  1  0
  3  4  1  0
  3  5  1  0
  5  6  2  0
  6  7  1  0
  7  8  2  0
  8  9  1  0
  9 10  2  0
 10  5  1  0
M  END
$$$$
