
     RDKit          3D

  7  7  0  0  0  0  0  0  0  0999 V2000
    1.4530    1.7630    0.1675 F   0  0  0  0  0  0  0  0  0  0  0  0
    0.6496    0.6965    0.1171 C   0  0  0  0  0  0  0  0  0  0  0  0
   -0.7555    0.7256    0.0854 C   0  0  0  0  0  0  0  0  0  0  0  0
   -1.1428   -0.5957    0.0370 C   0  0  0  0  0  0  0  0  0  0  0  0
   -0.0565   -1.4188    0.0376 O   0  0  0  0  0  0  0  0  0  0  0  0
    1.0449   -0.6149    0.0871 C   0  0  0  0  0  0  0  0  0  0  0  0
    2.3120   -1.0511    0.1035 F   0  0  0  0  0  0  0  0  0  0  0  0
  1  2  1  0
  2  3  1  0
  3  4  2  0
  4  5  1  0
  5  6  1  0
  6  7  1  0
  6  2  2  0
M  END
$$$$
