
     RDKit          3D

 12 12  0  0  0  0  0  0  0  0999 V2000
    0.2160   -2.7208   -0.0427 F   0  0  0  0  0  0  0  0  0  0  0  0
    0.1100   -1.3852   -0.0218 C   0  0  0  0  0  0  0  0  0  0  0  0
   -1.1447   -0.7880   -0.0027 C   0  0  0  0  0  0  0  0  0  0  0  0
   -2.2485   -1.5477   -0.0053 F   0  0  0  0  0  0  0  0  0  0  0  0
   -1.2547    0.5972    0.0191 C   0  0  0  0  0  0  0  0  0  0  0  0
   -2.4645    1.1731    0.0375 F   0  0  0  0  0  0  0  0  0  0  0  0
   -0.1100    1.3852    0.0217 C   0  0  0  0  0  0  0  0  0  0  0  0
   -0.2160    2.7208    0.0427 F   0  0  0  0  0  0  0  0  0  0  0  0
    1.1447    0.7880    0.0027 C   0  0  0  0  0  0  0  0  0  0  0  0
    2.2485    1.5477    0.0053 F   0  0  0  0  0  0  0  0  0  0  0  0
    1.2547   -0.5972   -0.0191 C   0  0  0  0  0  0  0  0  0  0  0  0
    2.4645   -1.1731   -0.0374 F   0  0  0  0  0  0  0  0  0  0  0  0
  1  2  1  0
  2  3  2  0
  3  4  1  0
  3  5  1  0
  5  6  1  0
  5  7  2  0
  7  8  1  0
  7  9  1  0
  9 10  1  0
  9 11  2  0
 11 12  1  0
 11  2  1  0
M  END
$$$$
