
     RDKit          3D

 12 11  0  0  0  0  0  0  0  0999 V2000
   -2.9191    1.5166   -0.5408 C   0  0  0  0  0  0  0  0  0  0  0  0
   -3.5068    0.2027   -0.0565 C   0  0  0  0  0  0  0  0  0  0  0  0
   -2.5354   -0.9806   -0.0980 C   0  0  0  0  0  0  0  0  0  0  0  0
   -1.3253   -0.8476    0.8330 C   0  0  0  0  0  0  0  0  0  0  0  0
   -0.0773   -0.3150    0.1222 C   0  0  0  0  0  0  0  0  0  0  0  0
    1.1028   -0.1999    1.0903 C   0  0  0  0  0  0  0  0  0  0  0  0
    2.3267    0.3279    0.3974 C   0  0  0  0  0  0  0  0  0  0  0  0
    3.4768   -0.3582    0.2750 C   0  0  0  0  0  0  0  0  0  0  0  0
    4.7203    0.1208   -0.3973 C   0  0  0  0  0  0  0  0  0  0  0  0
    4.5986    1.3718   -0.9055 F   0  0  0  0  0  0  0  0  0  0  0  0
    5.0673   -0.6947   -1.4229 F   0  0  0  0  0  0  0  0  0  0  0  0
    5.7662    0.1401    0.4646 F   0  0  0  0  0  0  0  0  0  0  0  0
  1  2  1  0
  2  3  1  0
  3  4  1  0
  4  5  1  0
  5  6  1  0
  6  7  1  0
  7  8  2  0
  8  9  1  0
  9 10  1  0
  9 11  1  0
  9 12  1  0
M  END
$$$$
