
     RDKit          3D

  8  8  0  0  0  0  0  0  0  0999 V2000
   -1.6632    1.6187    0.2489 F   0  0  0  0  0  0  0  0  0  0  0  0
   -0.7810    0.6214    0.1478 C   0  0  0  0  0  0  0  0  0  0  0  0
   -1.0793   -0.7114    0.0349 C   0  0  0  0  0  0  0  0  0  0  0  0
    0.0757   -1.4365   -0.0464 O   0  0  0  0  0  0  0  0  0  0  0  0
    1.1068   -0.5392    0.0171 C   0  0  0  0  0  0  0  0  0  0  0  0
    2.4057   -0.8666   -0.0313 F   0  0  0  0  0  0  0  0  0  0  0  0
    0.6102    0.7333    0.1367 C   0  0  0  0  0  0  0  0  0  0  0  0
    1.3228    1.8598    0.2252 F   0  0  0  0  0  0  0  0  0  0  0  0
  1  2  1  0
  2  3  2  0
  3  4  1  0
  4  5  1  0
  5  6  1  0
  5  7  2  0
  7  8  1  0
  7  2  1  0
M  END
$$$$
