
     RDKit          3D

 17 17  0  0  0  0  0  0  0  0999 V2000
   -6.4094    0.8611   -0.6796 C   0  0  0  0  0  0  0  0  0  0  0  0
   -5.4196   -0.1526   -1.2328 C   0  0  0  0  0  0  0  0  0  0  0  0
   -4.1674   -0.3228   -0.3682 C   0  0  0  0  0  0  0  0  0  0  0  0
   -3.2799    0.9245   -0.3373 C   0  0  0  0  0  0  0  0  0  0  0  0
   -2.0305    0.7597    0.5345 C   0  0  0  0  0  0  0  0  0  0  0  0
   -1.0283   -0.2551   -0.0202 C   0  0  0  0  0  0  0  0  0  0  0  0
    0.2495   -0.2884    0.8225 C   0  0  0  0  0  0  0  0  0  0  0  0
    1.2526   -1.3059    0.2691 C   0  0  0  0  0  0  0  0  0  0  0  0
    2.5264   -1.3939    1.1082 C   0  0  0  0  0  0  0  0  0  0  0  0
    2.1857   -1.7964    2.3655 F   0  0  0  0  0  0  0  0  0  0  0  0
    3.1475   -0.1153    1.2480 O   0  0  0  0  0  0  0  0  0  0  0  0
    4.1569    0.0644    0.3444 C   0  0  0  0  0  0  0  0  0  0  0  0
    5.3655   -0.6202    0.4684 C   0  0  0  0  0  0  0  0  0  0  0  0
    6.3869   -0.3882   -0.4530 C   0  0  0  0  0  0  0  0  0  0  0  0
    6.2026    0.5384   -1.4805 C   0  0  0  0  0  0  0  0  0  0  0  0
    5.0018    1.2425   -1.5813 C   0  0  0  0  0  0  0  0  0  0  0  0
    3.9795    1.0125   -0.6607 C   0  0  0  0  0  0  0  0  0  0  0  0
  1  2  1  0
  2  3  1  0
  3  4  1  0
  4  5  1  0
  5  6  1  0
  6  7  1  0
  7  8  1  0
  8  9  1  0
  9 10  1  0
  9 11  1  0
 11 12  1  0
 12 13  2  0
 13 14  1  0
 14 15  2  0
 15 16  1  0
 16 17  2  0
 17 12  1  0
M  END
$$$$
