
     RDKit          3D

 14 13  0  0  0  0  0  0  0  0999 V2000
   -1.0122   -1.9392    0.6012 F   0  0  0  0  0  0  0  0  0  0  0  0
   -0.8975   -0.6772    0.0961 C   0  0  0  0  0  0  0  0  0  0  0  0
    0.0864   -0.0400    0.9070 O   0  0  0  0  0  0  0  0  0  0  0  0
    1.0071    0.7224    0.1351 C   0  0  0  0  0  0  0  0  0  0  0  0
    1.4222    1.7381    0.9373 F   0  0  0  0  0  0  0  0  0  0  0  0
    0.3197    1.3075   -0.8821 F   0  0  0  0  0  0  0  0  0  0  0  0
    2.2146   -0.0816   -0.4001 C   0  0  0  0  0  0  0  0  0  0  0  0
    2.9285   -0.6592    0.5953 F   0  0  0  0  0  0  0  0  0  0  0  0
    3.0672    0.6950   -1.1110 F   0  0  0  0  0  0  0  0  0  0  0  0
    1.8075   -1.0804   -1.2267 F   0  0  0  0  0  0  0  0  0  0  0  0
   -2.2626    0.0304    0.1330 C   0  0  0  0  0  0  0  0  0  0  0  0
   -3.1716   -0.6274   -0.6258 F   0  0  0  0  0  0  0  0  0  0  0  0
   -2.7603    0.1183    1.3866 F   0  0  0  0  0  0  0  0  0  0  0  0
   -2.1782    1.2894   -0.3579 F   0  0  0  0  0  0  0  0  0  0  0  0
  1  2  1  0
  2  3  1  0
  3  4  1  0
  4  5  1  0
  4  6  1  0
  4  7  1  0
  7  8  1  0
  7  9  1  0
  7 10  1  0
  2 11  1  0
 11 12  1  0
 11 13  1  0
 11 14  1  0
M  END
$$$$
