
     RDKit          3D

 15 15  0  0  0  0  0  0  0  0999 V2000
    3.6555   -1.1987   -0.8366 C   0  0  0  0  0  0  0  0  0  0  0  0
    2.1412   -1.2127   -0.9235 C   0  0  0  0  0  0  0  0  0  0  0  0
    1.5710   -0.8709    0.3484 O   0  0  0  0  0  0  0  0  0  0  0  0
    1.4002    0.4665    0.5951 C   0  0  0  0  0  0  0  0  0  0  0  0
    1.7305    1.3474   -0.1955 O   0  0  0  0  0  0  0  0  0  0  0  0
    0.7840    0.7347    1.9718 C   0  0  0  0  0  0  0  0  0  0  0  0
    0.4722    2.0512    2.1617 F   0  0  0  0  0  0  0  0  0  0  0  0
    2.1680    0.2601    3.2848 Br  0  0  0  0  0  0  0  0  0  0  0  0
   -0.6914   -0.2844    2.3104 S   0  0  0  0  0  0  0  0  0  0  0  0
   -1.6986    0.1277    0.8986 C   0  0  0  0  0  0  0  0  0  0  0  0
   -2.0749    1.4445    0.6177 C   0  0  0  0  0  0  0  0  0  0  0  0
   -2.8598    1.7290   -0.5020 C   0  0  0  0  0  0  0  0  0  0  0  0
   -3.2819    0.6987   -1.3400 C   0  0  0  0  0  0  0  0  0  0  0  0
   -2.9257   -0.6180   -1.0564 C   0  0  0  0  0  0  0  0  0  0  0  0
   -2.1402   -0.9033    0.0621 C   0  0  0  0  0  0  0  0  0  0  0  0
  1  2  1  0
  2  3  1  0
  3  4  1  0
  4  5  2  0
  4  6  1  0
  6  7  1  0
  6  8  1  0
  6  9  1  0
  9 10  1  0
 10 11  2  0
 11 12  1  0
 12 13  2  0
 13 14  1  0
 14 15  2  0
 15 10  1  0
M  END
$$$$
