
     RDKit          3D

 12 12  0  0  0  0  0  0  0  0999 V2000
   -1.8610    1.6210   -1.1278 O   0  0  0  0  0  0  0  0  0  0  0  0
   -1.6176    0.6565   -0.3954 C   0  0  0  0  0  0  0  0  0  0  0  0
   -0.1818    0.2932   -0.1701 C   0  0  0  0  0  0  0  0  0  0  0  0
    0.2298   -0.9267    0.3819 C   0  0  0  0  0  0  0  0  0  0  0  0
    1.5909   -1.1987    0.5563 C   0  0  0  0  0  0  0  0  0  0  0  0
    2.5499   -0.2613    0.1786 C   0  0  0  0  0  0  0  0  0  0  0  0
    2.1532    0.9512   -0.3780 C   0  0  0  0  0  0  0  0  0  0  0  0
    0.7955    1.2264   -0.5535 C   0  0  0  0  0  0  0  0  0  0  0  0
   -2.7190   -0.1673    0.2529 C   0  0  0  0  0  0  0  0  0  0  0  0
   -2.3687   -0.7192    1.4482 F   0  0  0  0  0  0  0  0  0  0  0  0
   -3.8387    0.5687    0.5047 F   0  0  0  0  0  0  0  0  0  0  0  0
   -3.1750   -1.5847   -1.0111 Br  0  0  0  0  0  0  0  0  0  0  0  0
  1  2  2  0
  2  3  1  0
  3  4  2  0
  4  5  1  0
  5  6  2  0
  6  7  1  0
  7  8  2  0
  2  9  1  0
  9 10  1  0
  9 11  1  0
  9 12  1  0
  8  3  1  0
M  END
$$$$
