
     RDKit          3D

 12 11  0  0  0  0  0  0  0  0999 V2000
   -2.7760    1.0519    1.4399 C   0  0  0  0  0  0  0  0  0  0  0  0
   -2.9834    0.4308    0.0672 C   0  0  0  0  0  0  0  0  0  0  0  0
   -1.9446   -0.6364   -0.2843 C   0  0  0  0  0  0  0  0  0  0  0  0
   -0.5270   -0.0778   -0.4298 C   0  0  0  0  0  0  0  0  0  0  0  0
    0.4515   -1.1654   -0.8871 C   0  0  0  0  0  0  0  0  0  0  0  0
    1.8732   -0.6320   -1.0578 C   0  0  0  0  0  0  0  0  0  0  0  0
    2.5786   -0.3301    0.2578 C   0  0  0  0  0  0  0  0  0  0  0  0
    2.1569   -0.7671    1.3323 O   0  0  0  0  0  0  0  0  0  0  0  0
    3.8232    0.5407    0.1488 C   0  0  0  0  0  0  0  0  0  0  0  0
    4.4591    0.3692   -1.0456 F   0  0  0  0  0  0  0  0  0  0  0  0
    4.7479    0.2632    1.1085 F   0  0  0  0  0  0  0  0  0  0  0  0
    3.3213    2.2388    0.2913 Cl  0  0  0  0  0  0  0  0  0  0  0  0
  1  2  1  0
  2  3  1  0
  3  4  1  0
  4  5  1  0
  5  6  1  0
  6  7  1  0
  7  8  2  0
  7  9  1  0
  9 10  1  0
  9 11  1  0
  9 12  1  0
M  END
$$$$
