
     RDKit          3D

  5  4  0  0  0  0  0  0  0  0999 V2000
   -1.0461   -1.4450   -0.0092 F   0  0  0  0  0  0  0  0  0  0  0  0
   -0.7315   -0.1361   -0.0022 C   0  0  0  0  0  0  0  0  0  0  0  0
    0.5201    0.3193    0.0026 C   0  0  0  0  0  0  0  0  0  0  0  0
    0.7085    1.6584    0.0095 F   0  0  0  0  0  0  0  0  0  0  0  0
    2.1673   -0.8759    0.0004 I   0  0  0  0  0  0  0  0  0  0  0  0
  1  2  1  0
  2  3  2  0
  3  4  1  0
  3  5  1  0
M  END
$$$$
