
     RDKit          3D

 11 11  0  0  0  0  0  0  0  0999 V2000
    2.2794   -1.4826   -1.3571 O   0  0  0  0  0  0  0  0  0  0  0  0
    1.8774   -1.1274    0.0473 S   0  0  0  0  0  4  0  0  0  0  0  0
    0.1718   -0.5410   -0.0407 C   0  0  0  0  0  0  0  0  0  0  0  0
   -0.5081   -0.1907    1.1323 C   0  0  0  0  0  0  0  0  0  0  0  0
   -1.8329    0.2473    1.0742 C   0  0  0  0  0  0  0  0  0  0  0  0
   -2.4877    0.3298   -0.1535 C   0  0  0  0  0  0  0  0  0  0  0  0
   -1.8210   -0.0279   -1.3240 C   0  0  0  0  0  0  0  0  0  0  0  0
   -0.4964   -0.4656   -1.2680 C   0  0  0  0  0  0  0  0  0  0  0  0
    2.6601    0.4405    0.5101 C   0  0  0  0  0  0  0  0  0  0  0  0
    2.2257    1.4893   -0.2358 F   0  0  0  0  0  0  0  0  0  0  0  0
    2.4021    0.7508    1.8100 F   0  0  0  0  0  0  0  0  0  0  0  0
  1  2  2  0
  2  3  1  0
  3  4  2  0
  4  5  1  0
  5  6  2  0
  6  7  1  0
  7  8  2  0
  2  9  1  0
  9 10  1  0
  9 11  1  0
  8  3  1  0
M  END
$$$$
