
     RDKit          3D

  8  8  0  0  0  0  0  0  0  0999 V2000
    2.4574    0.7674    0.2046 F   0  0  0  0  0  0  0  0  0  0  0  0
    1.2082    0.2954    0.0969 C   0  0  0  0  0  0  0  0  0  0  0  0
    0.1359    1.1761    0.0626 C   0  0  0  0  0  0  0  0  0  0  0  0
   -1.1530    0.6613   -0.0498 C   0  0  0  0  0  0  0  0  0  0  0  0
   -1.3098   -0.7171   -0.1230 C   0  0  0  0  0  0  0  0  0  0  0  0
   -0.2834   -1.5959   -0.0917 N   0  0  0  0  0  0  0  0  0  0  0  0
    0.9580   -1.0658    0.0181 C   0  0  0  0  0  0  0  0  0  0  0  0
    1.9913   -1.9207    0.0509 F   0  0  0  0  0  0  0  0  0  0  0  0
  1  2  1  0
  2  3  2  0
  3  4  1  0
  4  5  2  0
  5  6  1  0
  6  7  2  0
  7  8  1  0
  7  2  1  0
M  END
$$$$
