
     RDKit          3D

 15 15  0  0  0  0  0  0  0  0999 V2000
   -2.1860   -2.1706    0.4647 F   0  0  0  0  0  0  0  0  0  0  0  0
   -1.4543   -1.0694    0.2402 C   0  0  0  0  0  0  0  0  0  0  0  0
   -0.0647   -1.1775    0.1843 C   0  0  0  0  0  0  0  0  0  0  0  0
    0.5000   -2.3775    0.3716 F   0  0  0  0  0  0  0  0  0  0  0  0
    0.7367   -0.0636   -0.0522 C   0  0  0  0  0  0  0  0  0  0  0  0
    2.2229   -0.1801   -0.0861 C   0  0  0  0  0  0  0  0  0  0  0  0
    2.7756   -0.0186    1.1464 F   0  0  0  0  0  0  0  0  0  0  0  0
    2.8200    0.7410   -0.8906 F   0  0  0  0  0  0  0  0  0  0  0  0
    2.6613   -1.3856   -0.5406 F   0  0  0  0  0  0  0  0  0  0  0  0
    0.1106    1.1711   -0.2022 C   0  0  0  0  0  0  0  0  0  0  0  0
    0.8472    2.2733   -0.3937 F   0  0  0  0  0  0  0  0  0  0  0  0
   -1.2783    1.2886   -0.1478 C   0  0  0  0  0  0  0  0  0  0  0  0
   -1.8375    2.4975   -0.3035 F   0  0  0  0  0  0  0  0  0  0  0  0
   -2.0699    0.1661    0.0705 C   0  0  0  0  0  0  0  0  0  0  0  0
   -3.7836    0.3053    0.1391 Cl  0  0  0  0  0  0  0  0  0  0  0  0
  1  2  1  0
  2  3  2  0
  3  4  1  0
  3  5  1  0
  5  6  1  0
  6  7  1  0
  6  8  1  0
  6  9  1  0
  5 10  2  0
 10 11  1  0
 10 12  1  0
 12 13  1  0
 12 14  2  0
 14 15  1  0
 14  2  1  0
M  END
$$$$
