
     RDKit          3D

  8  7  0  0  0  0  0  0  0  0999 V2000
   -1.2353   -0.3293   -0.2493 C   0  0  0  0  0  0  0  0  0  0  0  0
   -0.0704    0.5960    0.0408 C   0  0  0  0  0  0  0  0  0  0  0  0
    0.0178    1.5034   -0.9724 F   0  0  0  0  0  0  0  0  0  0  0  0
   -0.3622    1.3124    1.1629 F   0  0  0  0  0  0  0  0  0  0  0  0
    1.2464   -0.1615    0.2074 C   0  0  0  0  0  0  0  0  0  0  0  0
    2.2852    0.6667    0.4663 F   0  0  0  0  0  0  0  0  0  0  0  0
    1.1819   -1.0552    1.2258 F   0  0  0  0  0  0  0  0  0  0  0  0
    1.5618   -0.8643   -0.9092 F   0  0  0  0  0  0  0  0  0  0  0  0
  1  2  1  0
  2  3  1  0
  2  4  1  0
  2  5  1  0
  5  6  1  0
  5  7  1  0
  5  8  1  0
M  END
$$$$
