
     RDKit          3D

  5  4  0  0  0  0  0  0  0  0999 V2000
   -1.5571    0.4914    0.1089 C   0  0  0  0  0  0  0  0  0  0  0  0
   -0.6584   -0.5298   -0.5701 C   0  0  0  0  0  0  0  0  0  0  0  0
    0.6716   -0.7644    0.1501 C   0  0  0  0  0  0  0  0  0  0  0  0
    1.5839    0.4514    0.1662 C   0  0  0  0  0  0  0  0  0  0  0  0
    1.0748    1.3950    1.0001 F   0  0  0  0  0  0  0  0  0  0  0  0
  1  2  1  0
  2  3  1  0
  3  4  1  0
  4  5  1  0
M  END
$$$$
