
     RDKit          3D

 10  9  0  0  0  0  0  0  0  0999 V2000
    3.0564    0.0100   -0.3522 C   0  0  0  0  0  0  0  0  0  0  0  0
    1.7025    0.6281   -0.6416 C   0  0  0  0  0  0  0  0  0  0  0  0
    0.6950   -0.2046   -0.0512 O   0  0  0  0  0  0  0  0  0  0  0  0
   -0.5833    0.2397   -0.2377 C   0  0  0  0  0  0  0  0  0  0  0  0
   -0.8812    1.2531   -0.8484 O   0  0  0  0  0  0  0  0  0  0  0  0
   -1.5253   -0.7111    0.4217 C   0  0  0  0  0  0  0  0  0  0  0  0
   -2.9348   -0.2449    0.2306 C   0  0  0  0  0  0  0  0  0  0  0  0
   -3.7781   -1.1206    0.8363 F   0  0  0  0  0  0  0  0  0  0  0  0
   -3.2922   -0.1994   -1.0685 F   0  0  0  0  0  0  0  0  0  0  0  0
   -3.1608    0.9602    0.7913 F   0  0  0  0  0  0  0  0  0  0  0  0
  1  2  1  0
  2  3  1  0
  3  4  1  0
  4  5  2  0
  4  6  1  0
  6  7  1  0
  7  8  1  0
  7  9  1  0
  7 10  1  0
M  END
$$$$
