
     RDKit          3D

  8  7  0  0  0  0  0  0  0  0999 V2000
    0.6943   -0.0180    1.3744 C   0  0  0  0  0  0  0  0  0  0  0  0
    0.0060   -0.0094    0.0012 C   0  0  0  0  0  0  0  0  0  0  0  0
   -0.9205   -1.2297   -0.1090 C   0  0  0  0  0  0  0  0  0  0  0  0
    1.0733   -0.0823   -1.1011 C   0  0  0  0  0  0  0  0  0  0  0  0
   -0.8119    1.2747   -0.1574 C   0  0  0  0  0  0  0  0  0  0  0  0
   -0.0294    2.3734   -0.0662 F   0  0  0  0  0  0  0  0  0  0  0  0
   -1.7641    1.3751    0.7971 F   0  0  0  0  0  0  0  0  0  0  0  0
   -1.4343    1.3192   -1.3568 F   0  0  0  0  0  0  0  0  0  0  0  0
  1  2  1  0
  2  3  1  0
  2  4  1  0
  2  5  1  0
  5  6  1  0
  5  7  1  0
  5  8  1  0
M  END
$$$$
