
     RDKit          3D

 19 20  0  0  0  0  0  0  0  0999 V2000
    6.9697    0.5177   -0.4993 C   0  0  0  0  0  0  0  0  0  0  0  0
    6.0149    1.5587   -0.3353 O   0  0  0  0  0  0  0  0  0  0  0  0
    4.6986    1.1902   -0.3089 C   0  0  0  0  0  0  0  0  0  0  0  0
    4.2044   -0.1053   -0.4497 C   0  0  0  0  0  0  0  0  0  0  0  0
    2.8240   -0.3432   -0.4033 C   0  0  0  0  0  0  0  0  0  0  0  0
    1.9190    0.7064   -0.2043 C   0  0  0  0  0  0  0  0  0  0  0  0
    0.4631    0.5070   -0.1855 C   0  0  0  0  0  0  0  0  0  0  0  0
   -0.1723   -0.5551    0.3281 C   0  0  0  0  0  0  0  0  0  0  0  0
    0.5175   -1.5647    0.9024 F   0  0  0  0  0  0  0  0  0  0  0  0
   -1.5874   -0.6601    0.3101 C   0  0  0  0  0  0  0  0  0  0  0  0
   -2.7852   -0.7495    0.2957 C   0  0  0  0  0  0  0  0  0  0  0  0
   -4.2117   -0.8526    0.2781 C   0  0  0  0  0  0  0  0  0  0  0  0
   -4.9507   -0.5293    1.4185 C   0  0  0  0  0  0  0  0  0  0  0  0
   -6.3434   -0.6281    1.4000 C   0  0  0  0  0  0  0  0  0  0  0  0
   -6.9978   -1.0496    0.2424 C   0  0  0  0  0  0  0  0  0  0  0  0
   -6.2615   -1.3736   -0.8972 C   0  0  0  0  0  0  0  0  0  0  0  0
   -4.8686   -1.2754   -0.8801 C   0  0  0  0  0  0  0  0  0  0  0  0
    2.4228    2.0064   -0.0809 C   0  0  0  0  0  0  0  0  0  0  0  0
    3.8003    2.2427   -0.1274 C   0  0  0  0  0  0  0  0  0  0  0  0
  1  2  1  0
  2  3  1  0
  3  4  2  0
  4  5  1  0
  5  6  2  0
  6  7  1  0
  7  8  2  0
  8  9  1  0
  8 10  1  0
 10 11  3  0
 11 12  1  0
 12 13  2  0
 13 14  1  0
 14 15  2  0
 15 16  1  0
 16 17  2  0
  6 18  1  0
 18 19  2  0
 19  3  1  0
 17 12  1  0
M  END
$$$$
