
     RDKit          3D

  5  4  0  0  0  0  0  0  0  0999 V2000
    1.8889    0.2266    0.2944 C   0  0  0  0  0  0  0  0  0  0  0  0
    0.5559    0.6862    0.4723 O   0  0  0  0  0  0  0  0  0  0  0  0
   -0.3813   -0.3949    0.4657 C   0  0  0  0  0  0  0  0  0  0  0  0
   -1.7948    0.1553    0.5730 C   0  0  0  0  0  0  0  0  0  0  0  0
   -2.1901    0.6175   -0.6469 F   0  0  0  0  0  0  0  0  0  0  0  0
  1  2  1  0
  2  3  1  0
  3  4  1  0
  4  5  1  0
M  END
$$$$
