
     RDKit          3D

 15 14  0  0  0  0  0  0  0  0999 V2000
   -5.6649    0.2477    1.0719 C   0  0  0  0  0  0  0  0  0  0  0  0
   -4.3493   -0.3805    0.6377 C   0  0  0  0  0  0  0  0  0  0  0  0
   -3.8618    0.2072   -0.6871 C   0  0  0  0  0  0  0  0  0  0  0  0
   -2.5994   -0.4717   -1.2264 C   0  0  0  0  0  0  0  0  0  0  0  0
   -1.3666   -0.2531   -0.3446 C   0  0  0  0  0  0  0  0  0  0  0  0
   -0.1134   -0.8448   -0.9937 C   0  0  0  0  0  0  0  0  0  0  0  0
    1.1272   -0.8233   -0.0932 C   0  0  0  0  0  0  0  0  0  0  0  0
    1.6348    0.5746    0.2593 C   0  0  0  0  0  0  0  0  0  0  0  0
    1.7300    1.3110   -0.8874 F   0  0  0  0  0  0  0  0  0  0  0  0
    0.7107    1.2108    1.0343 F   0  0  0  0  0  0  0  0  0  0  0  0
    2.9779    0.4541    0.9817 C   0  0  0  0  0  0  0  0  0  0  0  0
    3.1136    0.2515    2.1842 O   0  0  0  0  0  0  0  0  0  0  0  0
    4.0184    0.5442    0.0985 O   0  0  0  0  0  0  0  0  0  0  0  0
    5.3158    0.4338    0.6963 C   0  0  0  0  0  0  0  0  0  0  0  0
    6.3548    0.5727   -0.3992 C   0  0  0  0  0  0  0  0  0  0  0  0
  1  2  1  0
  2  3  1  0
  3  4  1  0
  4  5  1  0
  5  6  1  0
  6  7  1  0
  7  8  1  0
  8  9  1  0
  8 10  1  0
  8 11  1  0
 11 12  2  0
 11 13  1  0
 13 14  1  0
 14 15  1  0
M  END
$$$$
