
     RDKit          3D

  7  6  0  0  0  0  0  0  0  0999 V2000
    1.5367    0.2421   -0.6946 O   0  0  0  0  0  0  0  0  0  0  0  0
    0.9997   -0.5907    0.3204 C   0  0  0  0  0  0  0  0  0  0  0  0
   -0.1149    0.1082    1.0745 C   0  0  0  0  0  0  0  0  0  0  0  0
   -1.3772    0.2173    0.2511 C   0  0  0  0  0  0  0  0  0  0  0  0
   -1.2175    0.9850   -0.8437 F   0  0  0  0  0  0  0  0  0  0  0  0
   -2.3601    0.7795    0.9953 F   0  0  0  0  0  0  0  0  0  0  0  0
   -1.8180   -0.9979   -0.1392 F   0  0  0  0  0  0  0  0  0  0  0  0
  1  2  1  0
  2  3  1  0
  3  4  1  0
  4  5  1  0
  4  6  1  0
  4  7  1  0
M  END
$$$$
