
     RDKit          3D

 12 12  0  0  0  0  0  0  0  0999 V2000
   -4.0102   -0.8452    0.7711 F   0  0  0  0  0  0  0  0  0  0  0  0
   -3.5375    0.3925    0.5086 C   0  0  0  0  0  0  0  0  0  0  0  0
   -4.2388    0.8706   -0.5489 F   0  0  0  0  0  0  0  0  0  0  0  0
   -3.8218    1.1867    1.5637 F   0  0  0  0  0  0  0  0  0  0  0  0
   -2.0546    0.3833    0.1828 C   0  0  0  0  0  0  0  0  0  0  0  0
   -1.0238   -0.2535    1.5580 S   0  0  0  0  0  0  0  0  0  0  0  0
    0.5657   -0.2464    0.7522 C   0  0  0  0  0  0  0  0  0  0  0  0
    1.2197   -1.4583    0.5127 C   0  0  0  0  0  0  0  0  0  0  0  0
    2.4663   -1.4732   -0.1164 C   0  0  0  0  0  0  0  0  0  0  0  0
    3.0680   -0.2763   -0.5013 C   0  0  0  0  0  0  0  0  0  0  0  0
    2.4270    0.9364   -0.2529 C   0  0  0  0  0  0  0  0  0  0  0  0
    1.1799    0.9521    0.3758 C   0  0  0  0  0  0  0  0  0  0  0  0
  1  2  1  0
  2  3  1  0
  2  4  1  0
  2  5  1  0
  5  6  1  0
  6  7  1  0
  7  8  2  0
  8  9  1  0
  9 10  2  0
 10 11  1  0
 11 12  2  0
 12  7  1  0
M  END
$$$$
