
     RDKit          3D

  6  5  0  0  0  0  0  0  0  0999 V2000
    1.4723   -0.7785   -0.2294 C   0  0  0  0  0  0  0  0  0  0  0  0
    0.8558   -0.0802    0.7280 C   0  0  0  0  0  0  0  0  0  0  0  0
    1.4939    0.1314    1.8990 F   0  0  0  0  0  0  0  0  0  0  0  0
   -0.5095    0.5146    0.6467 C   0  0  0  0  0  0  0  0  0  0  0  0
   -1.3034    0.3331   -0.6209 C   0  0  0  0  0  0  0  0  0  0  0  0
   -0.9724    1.1403    1.6001 O   0  0  0  0  0  0  0  0  0  0  0  0
  1  2  2  0
  2  3  1  0
  2  4  1  0
  4  5  1  0
  4  6  2  0
M  END
$$$$
