
     RDKit          3D

 30 30  0  0  0  0  0  0  0  0999 V2000
   -2.8820    2.2849   -0.0766 F   0  0  0  0  0  0  0  0  0  0  0  0
   -1.6486    2.4119    0.4782 C   0  0  0  0  0  0  0  0  0  0  0  0
   -1.8273    2.7286    1.7817 F   0  0  0  0  0  0  0  0  0  0  0  0
   -1.1155    3.5031   -0.1304 F   0  0  0  0  0  0  0  0  0  0  0  0
   -0.7864    1.1533    0.2927 C   0  0  0  0  0  0  0  0  0  0  0  0
   -1.4028   -0.1319    0.2214 C   0  0  0  0  0  0  0  0  0  0  0  0
   -2.8866   -0.2960    0.5868 C   0  0  0  0  0  0  0  0  0  0  0  0
   -3.7018   -0.1490   -0.4833 F   0  0  0  0  0  0  0  0  0  0  0  0
   -3.2934    0.5963    1.5268 F   0  0  0  0  0  0  0  0  0  0  0  0
   -3.1573   -1.5095    1.1338 F   0  0  0  0  0  0  0  0  0  0  0  0
   -0.6298   -1.2697   -0.1594 C   0  0  0  0  0  0  0  0  0  0  0  0
   -1.3243   -2.6077   -0.4584 C   0  0  0  0  0  0  0  0  0  0  0  0
   -2.5765   -2.4443   -0.9591 F   0  0  0  0  0  0  0  0  0  0  0  0
   -0.6739   -3.3320   -1.4059 F   0  0  0  0  0  0  0  0  0  0  0  0
   -1.4319   -3.3911    0.6398 F   0  0  0  0  0  0  0  0  0  0  0  0
    0.7864   -1.1533   -0.2927 C   0  0  0  0  0  0  0  0  0  0  0  0
    1.6486   -2.4119   -0.4782 C   0  0  0  0  0  0  0  0  0  0  0  0
    2.8820   -2.2849    0.0766 F   0  0  0  0  0  0  0  0  0  0  0  0
    1.8273   -2.7286   -1.7817 F   0  0  0  0  0  0  0  0  0  0  0  0
    1.1155   -3.5031    0.1304 F   0  0  0  0  0  0  0  0  0  0  0  0
    1.4028    0.1319   -0.2214 C   0  0  0  0  0  0  0  0  0  0  0  0
    2.8865    0.2960   -0.5868 C   0  0  0  0  0  0  0  0  0  0  0  0
    3.2933   -0.5963   -1.5268 F   0  0  0  0  0  0  0  0  0  0  0  0
    3.1573    1.5095   -1.1339 F   0  0  0  0  0  0  0  0  0  0  0  0
    3.7018    0.1490    0.4833 F   0  0  0  0  0  0  0  0  0  0  0  0
    0.6298    1.2697    0.1594 C   0  0  0  0  0  0  0  0  0  0  0  0
    1.3243    2.6077    0.4584 C   0  0  0  0  0  0  0  0  0  0  0  0
    0.6739    3.3320    1.4059 F   0  0  0  0  0  0  0  0  0  0  0  0
    2.5765    2.4443    0.9591 F   0  0  0  0  0  0  0  0  0  0  0  0
    1.4319    3.3911   -0.6398 F   0  0  0  0  0  0  0  0  0  0  0  0
  1  2  1  0
  2  3  1  0
  2  4  1  0
  2  5  1  0
  5  6  2  0
  6  7  1  0
  7  8  1  0
  7  9  1  0
  7 10  1  0
  6 11  1  0
 11 12  1  0
 12 13  1  0
 12 14  1  0
 12 15  1  0
 11 16  2  0
 16 17  1  0
 17 18  1  0
 17 19  1  0
 17 20  1  0
 16 21  1  0
 21 22  1  0
 22 23  1  0
 22 24  1  0
 22 25  1  0
 21 26  2  0
 26 27  1  0
 27 28  1  0
 27 29  1  0
 27 30  1  0
 26  5  1  0
M  END
$$$$
