
     RDKit          3D

 16 15  0  0  0  0  0  0  0  0999 V2000
    2.7098   -0.5497    0.5357 O   0  0  0  0  0  0  0  0  0  0  0  0
    1.9553    0.1457   -0.1263 C   0  0  0  0  0  0  0  0  0  0  0  0
    2.2428    1.4526   -0.3154 O   0  0  0  0  0  0  0  0  0  0  0  0
    0.6438   -0.2923   -0.7735 C   0  0  0  0  0  0  0  0  0  0  0  0
    0.8345   -1.4670   -1.4462 F   0  0  0  0  0  0  0  0  0  0  0  0
    0.2367    0.5929   -1.7279 F   0  0  0  0  0  0  0  0  0  0  0  0
   -0.4302   -0.4771    0.2595 C   0  0  0  0  0  0  0  0  0  0  0  0
   -0.0479   -1.4278    1.1702 F   0  0  0  0  0  0  0  0  0  0  0  0
   -0.7265    0.8082    0.9610 C   0  0  0  0  0  0  0  0  0  0  0  0
   -1.0755    1.8017    0.1196 F   0  0  0  0  0  0  0  0  0  0  0  0
    0.3488    1.2476    1.6580 F   0  0  0  0  0  0  0  0  0  0  0  0
   -1.7260    0.6803    1.8619 F   0  0  0  0  0  0  0  0  0  0  0  0
   -1.6907   -0.9099   -0.4141 C   0  0  0  0  0  0  0  0  0  0  0  0
   -1.5332   -2.0780   -1.0788 F   0  0  0  0  0  0  0  0  0  0  0  0
   -2.1519   -0.0093   -1.3070 F   0  0  0  0  0  0  0  0  0  0  0  0
   -2.6880   -1.1181    0.4780 F   0  0  0  0  0  0  0  0  0  0  0  0
  1  2  2  0
  2  3  1  0
  2  4  1  0
  4  5  1  0
  4  6  1  0
  4  7  1  0
  7  8  1  0
  7  9  1  0
  9 10  1  0
  9 11  1  0
  9 12  1  0
  7 13  1  0
 13 14  1  0
 13 15  1  0
 13 16  1  0
M  END
$$$$
