
     RDKit          3D

  5  5  0  0  0  0  0  0  0  0999 V2000
    2.1466   -0.8939    0.6001 F   0  0  0  0  0  0  0  0  0  0  0  0
    1.4351    0.1889    0.1878 C   0  0  0  0  0  0  0  0  0  0  0  0
    0.1557   -0.2927   -0.4046 C   0  0  0  0  0  0  0  0  0  0  0  0
   -1.0415   -0.5646    0.4694 C   0  0  0  0  0  0  0  0  0  0  0  0
   -1.0508    0.6080   -0.4736 C   0  0  0  0  0  0  0  0  0  0  0  0
  1  2  1  0
  2  3  1  0
  3  4  1  0
  4  5  1  0
  5  3  1  0
M  END
$$$$
