
     RDKit          3D

  6  5  0  0  0  0  0  0  0  0999 V2000
   -1.5389    0.0015   -0.2516 N   0  0  0  0  0  0  0  0  0  0  0  0
   -0.1963   -0.5582   -0.5441 C   0  0  0  0  0  0  0  0  0  0  0  0
    1.0197    0.2402   -0.0371 C   0  0  0  0  0  0  0  0  0  0  0  0
    2.1775   -0.3711   -0.3655 F   0  0  0  0  0  0  0  0  0  0  0  0
    1.0377    1.4824   -0.5711 F   0  0  0  0  0  0  0  0  0  0  0  0
    0.9839    0.3710    1.3083 F   0  0  0  0  0  0  0  0  0  0  0  0
  1  2  1  0
  2  3  1  0
  3  4  1  0
  3  5  1  0
  3  6  1  0
M  END
$$$$
