
     RDKit          3D

 12 11  0  0  0  0  0  0  0  0999 V2000
    2.9632   -0.6590   -2.0537 C   0  0  0  0  0  0  0  0  0  0  0  0
    2.4715   -0.0191   -0.7702 C   0  0  0  0  0  0  0  0  0  0  0  0
    1.0577    0.1864   -0.8859 O   0  0  0  0  0  0  0  0  0  0  0  0
    0.4828    0.7365    0.2151 C   0  0  0  0  0  0  0  0  0  0  0  0
    1.0709    1.0792    1.2308 O   0  0  0  0  0  0  0  0  0  0  0  0
   -1.0033    0.8871    0.0143 C   0  0  0  0  0  0  0  0  0  0  0  0
   -1.7774    0.3314    1.2166 C   0  0  0  0  0  0  0  0  0  0  0  0
   -3.2034    0.7662    1.1114 N   0  0  0  0  0  0  0  0  0  0  0  0
   -1.5825   -1.2086    1.3125 C   0  0  0  0  0  0  0  0  0  0  0  0
   -0.2823   -1.5499    1.4346 F   0  0  0  0  0  0  0  0  0  0  0  0
   -2.2388   -1.7301    2.3722 F   0  0  0  0  0  0  0  0  0  0  0  0
   -2.0564   -1.8160    0.1973 F   0  0  0  0  0  0  0  0  0  0  0  0
  1  2  1  0
  2  3  1  0
  3  4  1  0
  4  5  2  0
  4  6  1  0
  6  7  1  0
  7  8  1  0
  7  9  1  0
  9 10  1  0
  9 11  1  0
  9 12  1  0
M  END
$$$$
