
     RDKit          3D

 11 11  0  0  0  0  0  0  0  0999 V2000
   -2.3237    0.9592   -0.5004 C   0  0  0  0  0  0  0  0  0  0  0  0
   -2.0271   -0.5232   -0.6750 C   0  0  0  0  0  0  0  0  0  0  0  0
   -1.0743   -1.0952    0.3798 C   0  0  0  0  0  0  0  0  0  0  0  0
   -1.0323   -2.4497    0.1835 F   0  0  0  0  0  0  0  0  0  0  0  0
   -1.6624   -0.9383    1.6040 F   0  0  0  0  0  0  0  0  0  0  0  0
    0.3136   -0.4915    0.3184 C   0  0  0  0  0  0  0  0  0  0  0  0
    1.2180   -0.8866   -0.6800 C   0  0  0  0  0  0  0  0  0  0  0  0
    2.4932   -0.3228   -0.7456 C   0  0  0  0  0  0  0  0  0  0  0  0
    2.8794    0.6387    0.1862 C   0  0  0  0  0  0  0  0  0  0  0  0
    1.9940    1.0353    1.1867 C   0  0  0  0  0  0  0  0  0  0  0  0
    0.7185    0.4726    1.2544 C   0  0  0  0  0  0  0  0  0  0  0  0
  1  2  1  0
  2  3  1  0
  3  4  1  0
  3  5  1  0
  3  6  1  0
  6  7  2  0
  7  8  1  0
  8  9  2  0
  9 10  1  0
 10 11  2  0
 11  6  1  0
M  END
$$$$
