
     RDKit          3D

 14 14  0  0  0  0  0  0  0  0999 V2000
   -2.2176   -2.0313   -0.8359 F   0  0  0  0  0  0  0  0  0  0  0  0
   -1.9022   -0.9256   -0.1040 C   0  0  0  0  0  0  0  0  0  0  0  0
   -2.3237   -1.1874    1.1612 F   0  0  0  0  0  0  0  0  0  0  0  0
   -2.6994    0.0661   -0.5808 F   0  0  0  0  0  0  0  0  0  0  0  0
   -0.4283   -0.5773   -0.1585 C   0  0  0  0  0  0  0  0  0  0  0  0
    0.4918   -1.5520   -0.5895 C   0  0  0  0  0  0  0  0  0  0  0  0
    1.8572   -1.2740   -0.6454 C   0  0  0  0  0  0  0  0  0  0  0  0
    2.3272   -0.0205   -0.2693 C   0  0  0  0  0  0  0  0  0  0  0  0
    1.4336    0.9564    0.1687 C   0  0  0  0  0  0  0  0  0  0  0  0
    0.0522    0.6936    0.2407 C   0  0  0  0  0  0  0  0  0  0  0  0
   -0.8842    1.7876    0.7131 C   0  0  0  0  0  0  0  0  0  0  0  0
   -0.2424    2.7923    1.3736 F   0  0  0  0  0  0  0  0  0  0  0  0
   -1.8356    1.3369    1.5721 F   0  0  0  0  0  0  0  0  0  0  0  0
   -1.5420    2.3833   -0.3162 F   0  0  0  0  0  0  0  0  0  0  0  0
  1  2  1  0
  2  3  1  0
  2  4  1  0
  2  5  1  0
  5  6  2  0
  6  7  1  0
  7  8  2  0
  8  9  1  0
  9 10  2  0
 10 11  1  0
 11 12  1  0
 11 13  1  0
 11 14  1  0
 10  5  1  0
M  END
$$$$
