
     RDKit          3D

  9  9  0  0  0  0  0  0  0  0999 V2000
   -0.6851    2.3979   -0.0426 F   0  0  0  0  0  0  0  0  0  0  0  0
   -0.3173    1.1106   -0.0197 C   0  0  0  0  0  0  0  0  0  0  0  0
    1.0248    0.7854   -0.0821 C   0  0  0  0  0  0  0  0  0  0  0  0
    1.3462   -0.5547   -0.0550 C   0  0  0  0  0  0  0  0  0  0  0  0
    2.6401   -0.8989   -0.1141 F   0  0  0  0  0  0  0  0  0  0  0  0
    0.4428   -1.5500    0.0275 N   0  0  0  0  0  0  0  0  0  0  0  0
   -0.8506   -1.1798    0.0858 C   0  0  0  0  0  0  0  0  0  0  0  0
   -1.7681   -2.1534    0.1684 F   0  0  0  0  0  0  0  0  0  0  0  0
   -1.2857    0.1279    0.0659 C   0  0  0  0  0  0  0  0  0  0  0  0
  1  2  1  0
  2  3  2  0
  3  4  1  0
  4  5  1  0
  4  6  2  0
  6  7  1  0
  7  8  1  0
  7  9  2  0
  9  2  1  0
M  END
$$$$
