
     RDKit          3D

  5  4  0  0  0  0  0  0  0  0999 V2000
    1.3903   -0.2184    0.1277 C   0  0  0  0  0  0  0  0  0  0  0  0
    0.2700    0.4361   -0.2066 C   0  0  0  0  0  0  0  0  0  0  0  0
    0.4464    1.6477   -0.7897 F   0  0  0  0  0  0  0  0  0  0  0  0
   -1.1535   -0.0022   -0.0172 C   0  0  0  0  0  0  0  0  0  0  0  0
   -1.3645   -1.5897    0.7472 Cl  0  0  0  0  0  0  0  0  0  0  0  0
  1  2  2  0
  2  3  1  0
  2  4  1  0
  4  5  1  0
M  END
$$$$
