
     RDKit          3D

  8  7  0  0  0  0  0  0  0  0999 V2000
   -1.8291    0.1176    0.0836 C   0  0  0  0  0  0  0  0  0  0  0  0
   -0.4268   -0.2324   -0.3156 C   0  0  0  0  0  0  0  0  0  0  0  0
   -0.1534   -0.9665   -1.2522 O   0  0  0  0  0  0  0  0  0  0  0  0
    0.4478    0.3806    0.5075 O   0  0  0  0  0  0  0  0  0  0  0  0
    1.7845    0.0847    0.1757 C   0  0  0  0  0  0  0  0  0  0  0  0
    2.0884    0.5180   -1.0631 F   0  0  0  0  0  0  0  0  0  0  0  0
    2.5835    0.7394    1.0498 F   0  0  0  0  0  0  0  0  0  0  0  0
    2.0378   -1.2330    0.2946 F   0  0  0  0  0  0  0  0  0  0  0  0
  1  2  1  0
  2  3  2  0
  2  4  1  0
  4  5  1  0
  5  6  1  0
  5  7  1  0
  5  8  1  0
M  END
$$$$
