
     RDKit          3D

 13 13  0  0  0  0  0  0  0  0999 V2000
    2.6726   -0.6616    0.4870 N   0  0  0  0  0  0  0  0  0  0  0  0
    1.9378    0.2034   -0.2740 C   0  0  0  0  0  0  0  0  0  0  0  0
    2.5135    0.9855   -1.0180 O   0  0  0  0  0  0  0  0  0  0  0  0
    0.4591    0.1560   -0.1639 C   0  0  0  0  0  0  0  0  0  0  0  0
   -0.1963   -0.7385    0.6869 C   0  0  0  0  0  0  0  0  0  0  0  0
    0.4916   -1.6033    1.4498 F   0  0  0  0  0  0  0  0  0  0  0  0
   -1.5891   -0.7558    0.7655 C   0  0  0  0  0  0  0  0  0  0  0  0
   -2.1984   -1.6208    1.5870 F   0  0  0  0  0  0  0  0  0  0  0  0
   -2.3589    0.1107    0.0047 C   0  0  0  0  0  0  0  0  0  0  0  0
   -1.7129    1.0005   -0.8413 C   0  0  0  0  0  0  0  0  0  0  0  0
   -2.4476    1.8420   -1.5808 F   0  0  0  0  0  0  0  0  0  0  0  0
   -0.3204    1.0293   -0.9305 C   0  0  0  0  0  0  0  0  0  0  0  0
    0.2362    1.9150   -1.7688 F   0  0  0  0  0  0  0  0  0  0  0  0
  1  2  1  0
  2  3  2  0
  2  4  1  0
  4  5  2  0
  5  6  1  0
  5  7  1  0
  7  8  1  0
  7  9  2  0
  9 10  1  0
 10 11  1  0
 10 12  2  0
 12 13  1  0
 12  4  1  0
M  END
$$$$
