
     RDKit          3D

  9  8  0  0  0  0  0  0  0  0999 V2000
   -3.0908   -0.8001   -0.5730 C   0  0  0  0  0  0  0  0  0  0  0  0
   -2.4639   -0.0591    0.5931 C   0  0  0  0  0  0  0  0  0  0  0  0
   -1.0991   -0.4685    0.7635 O   0  0  0  0  0  0  0  0  0  0  0  0
   -0.1893    0.2135    0.0249 C   0  0  0  0  0  0  0  0  0  0  0  0
   -0.4130    1.1142   -0.7655 O   0  0  0  0  0  0  0  0  0  0  0  0
    1.1475   -0.3359    0.3359 C   0  0  0  0  0  0  0  0  0  0  0  0
    2.2463    0.1844   -0.2321 C   0  0  0  0  0  0  0  0  0  0  0  0
    3.6328   -0.3002    0.0205 C   0  0  0  0  0  0  0  0  0  0  0  0
    4.3851    0.7052    0.5408 F   0  0  0  0  0  0  0  0  0  0  0  0
  1  2  1  0
  2  3  1  0
  3  4  1  0
  4  5  2  0
  4  6  1  0
  6  7  2  0
  7  8  1  0
  8  9  1  0
M  END
$$$$
