
     RDKit          3D

 13 12  0  0  0  0  0  0  0  0999 V2000
    0.9371   -1.8850   -0.3743 O   0  0  0  0  0  0  0  0  0  0  0  0
    1.0372   -0.7431    0.0606 C   0  0  0  0  0  0  0  0  0  0  0  0
    0.0010    0.1376    0.1910 O   0  0  0  0  0  0  0  0  0  0  0  0
   -1.0429   -0.0604   -0.6678 C   0  0  0  0  0  0  0  0  0  0  0  0
   -0.9547   -0.5931   -1.7686 O   0  0  0  0  0  0  0  0  0  0  0  0
   -2.3016    0.5851   -0.1011 C   0  0  0  0  0  0  0  0  0  0  0  0
   -2.3095    1.9339   -0.2942 F   0  0  0  0  0  0  0  0  0  0  0  0
   -2.4143    0.3973    1.2452 F   0  0  0  0  0  0  0  0  0  0  0  0
   -3.4498    0.1075   -0.6516 F   0  0  0  0  0  0  0  0  0  0  0  0
    2.3048   -0.1324    0.6457 C   0  0  0  0  0  0  0  0  0  0  0  0
    2.4257    1.1917    0.3412 F   0  0  0  0  0  0  0  0  0  0  0  0
    3.4454   -0.7311    0.2095 F   0  0  0  0  0  0  0  0  0  0  0  0
    2.3217   -0.2080    2.0061 F   0  0  0  0  0  0  0  0  0  0  0  0
  1  2  2  0
  2  3  1  0
  3  4  1  0
  4  5  2  0
  4  6  1  0
  6  7  1  0
  6  8  1  0
  6  9  1  0
  2 10  1  0
 10 11  1  0
 10 12  1  0
 10 13  1  0
M  END
$$$$
