
     RDKit          3D

 15 15  0  0  0  0  0  0  0  0999 V2000
   -2.0538   -0.1586    1.8332 F   0  0  0  0  0  0  0  0  0  0  0  0
   -2.0052   -0.9522    0.7439 C   0  0  0  0  0  0  0  0  0  0  0  0
   -3.2787   -1.2646    0.4122 F   0  0  0  0  0  0  0  0  0  0  0  0
   -1.4187   -2.1155    1.1199 F   0  0  0  0  0  0  0  0  0  0  0  0
   -1.2694   -0.3333   -0.4163 C   0  0  0  0  0  0  0  0  0  0  0  0
    0.2172   -0.1255   -0.1554 C   0  0  0  0  0  0  0  0  0  0  0  0
    1.1611   -0.7791   -0.9653 C   0  0  0  0  0  0  0  0  0  0  0  0
    2.5292   -0.6058   -0.7475 C   0  0  0  0  0  0  0  0  0  0  0  0
    2.9736    0.2212    0.2804 C   0  0  0  0  0  0  0  0  0  0  0  0
    2.0507    0.8758    1.0916 C   0  0  0  0  0  0  0  0  0  0  0  0
    0.6816    0.7052    0.8770 C   0  0  0  0  0  0  0  0  0  0  0  0
   -2.0023    0.9337   -0.7746 C   0  0  0  0  0  0  0  0  0  0  0  0
   -1.4130    1.5480   -1.8302 F   0  0  0  0  0  0  0  0  0  0  0  0
   -2.0507    1.8287    0.2329 F   0  0  0  0  0  0  0  0  0  0  0  0
   -3.2757    0.6786   -1.1526 F   0  0  0  0  0  0  0  0  0  0  0  0
  1  2  1  0
  2  3  1  0
  2  4  1  0
  2  5  1  0
  5  6  1  0
  6  7  2  0
  7  8  1  0
  8  9  2  0
  9 10  1  0
 10 11  2  0
  5 12  1  0
 12 13  1  0
 12 14  1  0
 12 15  1  0
 11  6  1  0
M  END
$$$$
