
     RDKit          3D

  7  7  0  0  0  0  0  0  0  0999 V2000
    2.7353    0.2049    0.9160 F   0  0  0  0  0  0  0  0  0  0  0  0
    1.4496    0.1411    0.5048 C   0  0  0  0  0  0  0  0  0  0  0  0
    0.7165    1.2614    0.5462 C   0  0  0  0  0  0  0  0  0  0  0  0
   -0.7203    1.3157    0.1216 C   0  0  0  0  0  0  0  0  0  0  0  0
   -1.3454   -0.0696   -0.0680 C   0  0  0  0  0  0  0  0  0  0  0  0
   -0.3859   -1.0232   -0.7765 C   0  0  0  0  0  0  0  0  0  0  0  0
    0.9249   -1.1690    0.0007 C   0  0  0  0  0  0  0  0  0  0  0  0
  1  2  1  0
  2  3  2  0
  3  4  1  0
  4  5  1  0
  5  6  1  0
  6  7  1  0
  7  2  1  0
M  END
$$$$
