
     RDKit          3D

  9  9  0  0  0  0  0  0  0  0999 V2000
    4.0386   -0.4693   -0.5914 F   0  0  0  0  0  0  0  0  0  0  0  0
    2.8321    0.0353   -0.2708 C   0  0  0  0  0  0  0  0  0  0  0  0
    1.7219   -0.6843   -0.4433 C   0  0  0  0  0  0  0  0  0  0  0  0
    0.3487   -0.2539   -0.1353 C   0  0  0  0  0  0  0  0  0  0  0  0
   -0.7017   -1.1510   -0.3839 C   0  0  0  0  0  0  0  0  0  0  0  0
   -2.0274   -0.8006   -0.1123 C   0  0  0  0  0  0  0  0  0  0  0  0
   -2.3227    0.4539    0.4128 C   0  0  0  0  0  0  0  0  0  0  0  0
   -1.2934    1.3566    0.6657 C   0  0  0  0  0  0  0  0  0  0  0  0
    0.0331    1.0055    0.3937 C   0  0  0  0  0  0  0  0  0  0  0  0
  1  2  1  0
  2  3  2  0
  3  4  1  0
  4  5  2  0
  5  6  1  0
  6  7  2  0
  7  8  1  0
  8  9  2  0
  9  4  1  0
M  END
$$$$
