
     RDKit          3D

 18 18  0  0  0  0  0  0  0  0999 V2000
   -2.7801   -1.2554    0.4391 F   0  0  0  0  0  0  0  0  0  0  0  0
   -3.1803   -0.6687   -0.7137 C   0  0  0  0  0  0  0  0  0  0  0  0
   -2.8482   -1.5220   -1.7145 F   0  0  0  0  0  0  0  0  0  0  0  0
   -4.5315   -0.6220   -0.6786 F   0  0  0  0  0  0  0  0  0  0  0  0
   -2.5582    0.7007   -0.9172 C   0  0  0  0  0  0  0  0  0  0  0  0
   -3.0940    1.2572   -2.0567 F   0  0  0  0  0  0  0  0  0  0  0  0
   -0.7044    0.6960   -1.2172 S   0  0  0  0  0  0  0  0  0  0  0  0
   -0.1274   -0.3810    0.1342 C   0  0  0  0  0  0  0  0  0  0  0  0
    1.3782   -0.3694    0.2241 C   0  0  0  0  0  0  0  0  0  0  0  0
    2.0362    0.5643    1.0387 C   0  0  0  0  0  0  0  0  0  0  0  0
    3.4299    0.5801    1.1146 C   0  0  0  0  0  0  0  0  0  0  0  0
    4.1801   -0.3316    0.3745 C   0  0  0  0  0  0  0  0  0  0  0  0
    3.5385   -1.2578   -0.4453 C   0  0  0  0  0  0  0  0  0  0  0  0
    2.1449   -1.2760   -0.5232 C   0  0  0  0  0  0  0  0  0  0  0  0
   -2.9773    1.5411    0.2760 C   0  0  0  0  0  0  0  0  0  0  0  0
   -2.5205    1.0429    1.4488 F   0  0  0  0  0  0  0  0  0  0  0  0
   -4.3219    1.6379    0.3903 F   0  0  0  0  0  0  0  0  0  0  0  0
   -2.5059    2.8098    0.1875 F   0  0  0  0  0  0  0  0  0  0  0  0
  1  2  1  0
  2  3  1  0
  2  4  1  0
  2  5  1  0
  5  6  1  0
  5  7  1  0
  7  8  1  0
  8  9  1  0
  9 10  2  0
 10 11  1  0
 11 12  2  0
 12 13  1  0
 13 14  2  0
  5 15  1  0
 15 16  1  0
 15 17  1  0
 15 18  1  0
 14  9  1  0
M  END
$$$$
