
     RDKit          3D

  9  8  0  0  0  0  0  0  0  0999 V2000
    2.8124    0.3439    0.3712 C   0  0  0  0  0  0  0  0  0  0  0  0
    1.7596   -0.3061   -0.5052 C   0  0  0  0  0  0  0  0  0  0  0  0
    0.4866   -0.1478    0.1331 O   0  0  0  0  0  0  0  0  0  0  0  0
   -0.5609   -0.7079   -0.5452 C   0  0  0  0  0  0  0  0  0  0  0  0
   -0.4550   -1.2660   -1.6326 O   0  0  0  0  0  0  0  0  0  0  0  0
   -1.8740   -0.4869    0.2011 C   0  0  0  0  0  0  0  0  0  0  0  0
   -2.5345    0.7889   -0.2829 C   0  0  0  0  0  0  0  0  0  0  0  0
   -1.7024   -0.3913    1.5537 F   0  0  0  0  0  0  0  0  0  0  0  0
   -2.7503   -1.5180    0.0157 F   0  0  0  0  0  0  0  0  0  0  0  0
  1  2  1  0
  2  3  1  0
  3  4  1  0
  4  5  2  0
  4  6  1  0
  6  7  1  0
  6  8  1  0
  6  9  1  0
M  END
$$$$
