
     RDKit          3D

  7  7  0  0  0  0  0  0  0  0999 V2000
    1.5104   -1.1394    1.1065 F   0  0  0  0  0  0  0  0  0  0  0  0
    1.3496   -0.5728   -0.1231 C   0  0  0  0  0  0  0  0  0  0  0  0
    0.1573   -1.2334   -0.8045 C   0  0  0  0  0  0  0  0  0  0  0  0
   -1.1525   -0.9122   -0.0877 C   0  0  0  0  0  0  0  0  0  0  0  0
   -1.3504    0.5921    0.0757 C   0  0  0  0  0  0  0  0  0  0  0  0
   -0.1597    1.2417    0.7751 C   0  0  0  0  0  0  0  0  0  0  0  0
    1.1533    0.9272    0.0610 C   0  0  0  0  0  0  0  0  0  0  0  0
  1  2  1  0
  2  3  1  0
  3  4  1  0
  4  5  1  0
  5  6  1  0
  6  7  1  0
  7  2  1  0
M  END
$$$$
