
     RDKit          3D

  7  6  0  0  0  0  0  0  0  0999 V2000
   -1.6526   -0.6520   -0.5239 C   0  0  0  0  0  0  0  0  0  0  0  0
   -1.0256    0.4373    0.2819 C   0  0  0  0  0  0  0  0  0  0  0  0
   -1.8719    1.2182    0.9971 F   0  0  0  0  0  0  0  0  0  0  0  0
    0.2846    0.7081    0.3915 C   0  0  0  0  0  0  0  0  0  0  0  0
    0.6312    1.7339    1.2091 F   0  0  0  0  0  0  0  0  0  0  0  0
    1.4094    0.0139   -0.3090 C   0  0  0  0  0  0  0  0  0  0  0  0
    2.2218   -0.6639    0.6421 O   0  0  0  0  0  0  0  0  0  0  0  0
  1  2  1  0
  2  3  1  0
  2  4  2  0
  4  5  1  0
  4  6  1  0
  6  7  1  0
M  END
$$$$
