
     RDKit          3D

 12 12  0  0  0  0  0  0  0  0999 V2000
    4.3005    0.3473    1.0228 F   0  0  0  0  0  0  0  0  0  0  0  0
    3.9796   -0.7892    0.3788 C   0  0  0  0  0  0  0  0  0  0  0  0
    3.1182   -0.8062   -0.6386 C   0  0  0  0  0  0  0  0  0  0  0  0
    2.4283    0.4050   -1.1739 C   0  0  0  0  0  0  0  0  0  0  0  0
    1.0211    0.1836   -1.1692 O   0  0  0  0  0  0  0  0  0  0  0  0
    0.4167    0.5528    0.0716 C   0  0  0  0  0  0  0  0  0  0  0  0
   -1.0646    0.2644    0.0353 C   0  0  0  0  0  0  0  0  0  0  0  0
   -1.7220   -0.1893    1.1885 C   0  0  0  0  0  0  0  0  0  0  0  0
   -3.0991   -0.4218    1.1772 C   0  0  0  0  0  0  0  0  0  0  0  0
   -3.8362   -0.1944    0.0168 C   0  0  0  0  0  0  0  0  0  0  0  0
   -3.1982    0.2682   -1.1320 C   0  0  0  0  0  0  0  0  0  0  0  0
   -1.8217    0.5012   -1.1214 C   0  0  0  0  0  0  0  0  0  0  0  0
  1  2  1  0
  2  3  2  0
  3  4  1  0
  4  5  1  0
  5  6  1  0
  6  7  1  0
  7  8  2  0
  8  9  1  0
  9 10  2  0
 10 11  1  0
 11 12  2  0
 12  7  1  0
M  END
$$$$
