
     RDKit          3D

  5  5  0  0  0  0  0  0  0  0999 V2000
   -0.2685   -2.2285    1.0098 F   0  0  0  0  0  0  0  0  0  0  0  0
   -0.1524   -1.0406    0.3928 C   0  0  0  0  0  0  0  0  0  0  0  0
   -0.4593   -0.6114   -0.8445 C   0  0  0  0  0  0  0  0  0  0  0  0
    0.0187    0.7973   -0.5863 C   0  0  0  0  0  0  0  0  0  0  0  0
    0.3718    0.3106    0.8316 C   0  0  0  0  0  0  0  0  0  0  0  0
  1  2  1  0
  2  3  2  0
  3  4  1  0
  4  5  1  0
  5  2  1  0
M  END
$$$$
