
     RDKit          3D

  9  8  0  0  0  0  0  0  0  0999 V2000
   -2.5117   -1.0453   -0.5515 C   0  0  0  0  0  0  0  0  0  0  0  0
   -1.6422    0.0924   -0.0405 C   0  0  0  0  0  0  0  0  0  0  0  0
   -0.1579   -0.1783   -0.2956 C   0  0  0  0  0  0  0  0  0  0  0  0
    0.7119    0.9713    0.2215 C   0  0  0  0  0  0  0  0  0  0  0  0
    2.2016    0.8596    0.0469 C   0  0  0  0  0  0  0  0  0  0  0  0
    2.9294    1.9024    0.5208 F   0  0  0  0  0  0  0  0  0  0  0  0
    2.8894   -0.1404   -0.5169 C   0  0  0  0  0  0  0  0  0  0  0  0
    2.2708   -1.2272   -1.0218 F   0  0  0  0  0  0  0  0  0  0  0  0
    4.2361   -0.0620   -0.5833 F   0  0  0  0  0  0  0  0  0  0  0  0
  1  2  1  0
  2  3  1  0
  3  4  1  0
  4  5  1  0
  5  6  1  0
  5  7  2  3
  7  8  1  0
  7  9  1  0
M  END
$$$$
