
     RDKit          3D

  4  3  0  0  0  0  0  0  0  0999 V2000
    1.3672   -0.2308   -0.0132 C   0  0  0  0  0  0  0  0  0  0  0  0
    0.2266    0.4653    0.0270 C   0  0  0  0  0  0  0  0  0  0  0  0
   -1.1345   -0.1434   -0.0085 C   0  0  0  0  0  0  0  0  0  0  0  0
    0.3171    1.8122    0.1050 F   0  0  0  0  0  0  0  0  0  0  0  0
  1  2  2  0
  2  3  1  0
  2  4  1  0
M  END
$$$$
