
     RDKit          3D

  5  4  0  0  0  0  0  0  0  0999 V2000
    1.6886    0.1826    0.4862 C   0  0  0  0  0  0  0  0  0  0  0  0
    0.4975    0.5136   -0.0280 C   0  0  0  0  0  0  0  0  0  0  0  0
   -0.5087   -0.4504   -0.3967 C   0  0  0  0  0  0  0  0  0  0  0  0
   -1.6990   -0.1301   -0.9101 C   0  0  0  0  0  0  0  0  0  0  0  0
   -0.2237   -1.7579   -0.2087 F   0  0  0  0  0  0  0  0  0  0  0  0
  1  2  2  0
  2  3  1  0
  3  4  2  0
  3  5  1  0
M  END
$$$$
