
     RDKit          3D

  9  8  0  0  0  0  0  0  0  0999 V2000
   -2.0422    0.0806    0.9568 C   0  0  0  0  0  0  0  0  0  0  0  0
   -1.5055   -0.6152   -0.2849 C   0  0  0  0  0  0  0  0  0  0  0  0
   -0.5594    0.2551   -1.1072 C   0  0  0  0  0  0  0  0  0  0  0  0
   -1.2319    1.3773   -1.5008 F   0  0  0  0  0  0  0  0  0  0  0  0
   -0.2816   -0.4207   -2.2659 F   0  0  0  0  0  0  0  0  0  0  0  0
    0.7166    0.5858   -0.3309 C   0  0  0  0  0  0  0  0  0  0  0  0
    0.9071    1.6133    0.3116 O   0  0  0  0  0  0  0  0  0  0  0  0
    1.6111   -0.4473   -0.4058 O   0  0  0  0  0  0  0  0  0  0  0  0
    2.8332   -0.2156    0.2964 C   0  0  0  0  0  0  0  0  0  0  0  0
  1  2  1  0
  2  3  1  0
  3  4  1  0
  3  5  1  0
  3  6  1  0
  6  7  2  0
  6  8  1  0
  8  9  1  0
M  END
$$$$
