
     RDKit          3D

 14 15  0  0  0  0  0  0  0  0999 V2000
   -4.4876    0.8160   -1.6553 N   0  0  0  0  0  0  0  0  0  0  0  0
   -3.8859    0.2959   -0.8069 C   0  0  0  0  0  0  0  0  0  0  0  0
   -3.1351   -0.4000    0.2554 C   0  0  0  0  0  0  0  0  0  0  0  0
   -3.4579    0.1798    1.4534 F   0  0  0  0  0  0  0  0  0  0  0  0
   -1.6415   -0.4057    0.0017 C   0  0  0  0  0  0  0  0  0  0  0  0
   -1.0876   -1.2181   -0.9977 C   0  0  0  0  0  0  0  0  0  0  0  0
    0.2902   -1.2165   -1.2295 C   0  0  0  0  0  0  0  0  0  0  0  0
    1.1462   -0.4050   -0.4702 C   0  0  0  0  0  0  0  0  0  0  0  0
    2.5327   -0.3937   -0.6928 C   0  0  0  0  0  0  0  0  0  0  0  0
    3.3710    0.4200    0.0708 C   0  0  0  0  0  0  0  0  0  0  0  0
    2.8344    1.2320    1.0654 C   0  0  0  0  0  0  0  0  0  0  0  0
    1.4582    1.2323    1.2986 C   0  0  0  0  0  0  0  0  0  0  0  0
    0.6010    0.4194    0.5394 C   0  0  0  0  0  0  0  0  0  0  0  0
   -0.7865    0.4092    0.7619 C   0  0  0  0  0  0  0  0  0  0  0  0
  1  2  3  0
  2  3  1  0
  3  4  1  0
  3  5  1  0
  5  6  2  0
  6  7  1  0
  7  8  2  0
  8  9  1  0
  9 10  2  0
 10 11  1  0
 11 12  2  0
 12 13  1  0
 13 14  2  0
 14  5  1  0
 13  8  1  0
M  END
$$$$
