
     RDKit          3D

  4  3  0  0  0  0  0  0  0  0999 V2000
    0.7256   -0.1496   -0.0289 C   0  0  0  0  0  0  0  0  0  0  0  0
   -0.5864    0.0626    0.0800 C   0  0  0  0  0  0  0  0  0  0  0  0
   -1.2973   -0.6701    0.9623 F   0  0  0  0  0  0  0  0  0  0  0  0
   -1.3859    1.2457   -0.8768 Cl  0  0  0  0  0  0  0  0  0  0  0  0
  1  2  2  0
  2  3  1  0
  2  4  1  0
M  END
$$$$
