
     RDKit          3D

  8  8  0  0  0  0  0  0  0  0999 V2000
   -2.4350    0.0704   -0.6846 F   0  0  0  0  0  0  0  0  0  0  0  0
   -1.1239    0.0325   -0.4282 C   0  0  0  0  0  0  0  0  0  0  0  0
   -0.3905    1.1750   -0.2202 C   0  0  0  0  0  0  0  0  0  0  0  0
    0.9343    1.1694    0.0406 N   0  0  0  0  0  0  0  0  0  0  0  0
    1.5167   -0.0438    0.0882 C   0  0  0  0  0  0  0  0  0  0  0  0
    2.8313   -0.0818    0.3453 F   0  0  0  0  0  0  0  0  0  0  0  0
    0.8928   -1.2221   -0.1001 N   0  0  0  0  0  0  0  0  0  0  0  0
   -0.4309   -1.1513   -0.3571 C   0  0  0  0  0  0  0  0  0  0  0  0
  1  2  1  0
  2  3  2  0
  3  4  1  0
  4  5  2  0
  5  6  1  0
  5  7  1  0
  7  8  2  0
  8  2  1  0
M  END
$$$$
