
     RDKit          3D

  9  9  0  0  0  0  0  0  0  0999 V2000
    3.0048   -1.0542    0.4674 F   0  0  0  0  0  0  0  0  0  0  0  0
    2.8619    0.2950    0.3859 C   0  0  0  0  0  0  0  0  0  0  0  0
    1.6000    0.8665    1.5508 S   0  0  0  0  0  0  0  0  0  0  0  0
    0.1212    0.3270    0.7111 C   0  0  0  0  0  0  0  0  0  0  0  0
   -0.9086    1.2510    0.5017 C   0  0  0  0  0  0  0  0  0  0  0  0
   -2.0861    0.8654   -0.1435 C   0  0  0  0  0  0  0  0  0  0  0  0
   -2.2459   -0.4498   -0.5748 C   0  0  0  0  0  0  0  0  0  0  0  0
   -1.2324   -1.3806   -0.3554 C   0  0  0  0  0  0  0  0  0  0  0  0
   -0.0547   -0.9948    0.2898 C   0  0  0  0  0  0  0  0  0  0  0  0
  1  2  1  0
  2  3  1  0
  3  4  1  0
  4  5  2  0
  5  6  1  0
  6  7  2  0
  7  8  1  0
  8  9  2  0
  9  4  1  0
M  END
$$$$
