
     RDKit          3D

  4  3  0  0  0  0  0  0  0  0999 V2000
    1.1898    0.4766   -0.0638 C   0  0  0  0  0  0  0  0  0  0  0  0
    0.1025   -0.5796   -0.1094 C   0  0  0  0  0  0  0  0  0  0  0  0
   -1.2811    0.0136    0.0728 C   0  0  0  0  0  0  0  0  0  0  0  0
    0.3241   -1.4636    0.9027 F   0  0  0  0  0  0  0  0  0  0  0  0
  1  2  1  0
  2  3  1  0
  2  4  1  0
M  END
$$$$
