
     RDKit          3D

  9  9  0  0  0  0  0  0  0  0999 V2000
    1.6920   -0.4889    0.9686 F   0  0  0  0  0  0  0  0  0  0  0  0
    0.8174   -0.2434   -0.0700 C   0  0  0  0  0  0  0  0  0  0  0  0
    1.5098   -0.4646   -1.2428 F   0  0  0  0  0  0  0  0  0  0  0  0
   -0.6194   -0.5887    0.0445 C   0  0  0  0  0  0  0  0  0  0  0  0
   -1.1221   -1.1653    1.1929 F   0  0  0  0  0  0  0  0  0  0  0  0
   -1.3042   -1.1409   -1.0184 F   0  0  0  0  0  0  0  0  0  0  0  0
   -0.1980    0.8321    0.0255 C   0  0  0  0  0  0  0  0  0  0  0  0
   -0.2966    1.6176    1.1555 F   0  0  0  0  0  0  0  0  0  0  0  0
   -0.4788    1.6419   -1.0558 F   0  0  0  0  0  0  0  0  0  0  0  0
  1  2  1  0
  2  3  1  0
  2  4  1  0
  4  5  1  0
  4  6  1  0
  4  7  1  0
  7  8  1  0
  7  9  1  0
  7  2  1  0
M  END
$$$$
