
     RDKit          3D

 10  9  0  0  0  0  0  0  0  0999 V2000
    2.4451    0.9264    1.0885 F   0  0  0  0  0  0  0  0  0  0  0  0
    2.0301    0.3264   -0.0483 C   0  0  0  0  0  0  0  0  0  0  0  0
    2.6990   -0.8399   -0.1778 F   0  0  0  0  0  0  0  0  0  0  0  0
    2.3620    1.1205   -1.0894 F   0  0  0  0  0  0  0  0  0  0  0  0
    0.5939    0.0955   -0.0141 C   0  0  0  0  0  0  0  0  0  0  0  0
   -0.5939   -0.0955    0.0141 C   0  0  0  0  0  0  0  0  0  0  0  0
   -2.0301   -0.3264    0.0483 C   0  0  0  0  0  0  0  0  0  0  0  0
   -2.6990    0.8399    0.1778 F   0  0  0  0  0  0  0  0  0  0  0  0
   -2.4451   -0.9263   -1.0885 F   0  0  0  0  0  0  0  0  0  0  0  0
   -2.3620   -1.1205    1.0893 F   0  0  0  0  0  0  0  0  0  0  0  0
  1  2  1  0
  2  3  1  0
  2  4  1  0
  2  5  1  0
  5  6  3  0
  6  7  1  0
  7  8  1  0
  7  9  1  0
  7 10  1  0
M  END
$$$$
