
     RDKit          3D

 14 14  0  0  0  0  0  0  0  0999 V2000
    3.2014    1.7470    0.5781 F   0  0  0  0  0  0  0  0  0  0  0  0
    2.8794    0.5087    0.1088 C   0  0  0  0  0  0  0  0  0  0  0  0
    3.5639   -0.3719    0.8919 F   0  0  0  0  0  0  0  0  0  0  0  0
    3.5375    0.3493   -1.7273 Br  0  0  0  0  0  0  0  0  0  0  0  0
    1.3900    0.2520    0.0958 C   0  0  0  0  0  0  0  0  0  0  0  0
    0.4836    1.3077   -0.0900 C   0  0  0  0  0  0  0  0  0  0  0  0
   -0.8927    1.0688   -0.1131 C   0  0  0  0  0  0  0  0  0  0  0  0
   -1.3959   -0.2316    0.0489 C   0  0  0  0  0  0  0  0  0  0  0  0
   -2.8844   -0.4917    0.0119 C   0  0  0  0  0  0  0  0  0  0  0  0
   -3.6198    0.5631    0.4633 F   0  0  0  0  0  0  0  0  0  0  0  0
   -3.2573   -1.5558    0.7772 F   0  0  0  0  0  0  0  0  0  0  0  0
   -3.3900   -0.8531   -1.8438 Br  0  0  0  0  0  0  0  0  0  0  0  0
   -0.4897   -1.2871    0.2359 C   0  0  0  0  0  0  0  0  0  0  0  0
    0.8867   -1.0482    0.2590 C   0  0  0  0  0  0  0  0  0  0  0  0
  1  2  1  0
  2  3  1  0
  2  4  1  0
  2  5  1  0
  5  6  2  0
  6  7  1  0
  7  8  2  0
  8  9  1  0
  9 10  1  0
  9 11  1  0
  9 12  1  0
  8 13  1  0
 13 14  2  0
 14  5  1  0
M  END
$$$$
