
     RDKit          3D

  6  5  0  0  0  0  0  0  0  0999 V2000
    0.9959    1.2807    0.6485 O   0  0  0  0  0  0  0  0  0  0  0  0
    0.5221    0.3009    0.0903 C   0  0  0  0  0  0  0  0  0  0  0  0
    1.3316   -0.4931   -0.6501 O   0  0  0  0  0  0  0  0  0  0  0  0
   -0.9375   -0.1205    0.0676 C   0  0  0  0  0  0  0  0  0  0  0  0
   -1.0989   -1.4747    0.0425 F   0  0  0  0  0  0  0  0  0  0  0  0
   -1.6278    0.3189    1.1580 F   0  0  0  0  0  0  0  0  0  0  0  0
  1  2  2  0
  2  3  1  0
  2  4  1  0
  4  5  1  0
  4  6  1  0
M  END
$$$$
