
     RDKit          3D

 16 15  0  0  0  0  0  0  0  0999 V2000
   -4.2585   -2.8633   -1.4005 C   0  0  0  0  0  0  0  0  0  0  0  0
   -3.7890   -1.4734   -0.9978 C   0  0  0  0  0  0  0  0  0  0  0  0
   -2.7501   -1.5396    0.1223 C   0  0  0  0  0  0  0  0  0  0  0  0
   -2.3307   -0.1636    0.6501 C   0  0  0  0  0  0  0  0  0  0  0  0
   -1.5549    0.6680   -0.3742 C   0  0  0  0  0  0  0  0  0  0  0  0
   -1.1321    2.0440    0.1525 C   0  0  0  0  0  0  0  0  0  0  0  0
   -0.2158    2.0424    1.3805 C   0  0  0  0  0  0  0  0  0  0  0  0
    1.0935    1.2757    1.1638 C   0  0  0  0  0  0  0  0  0  0  0  0
    2.0215    1.4238    2.3680 C   0  0  0  0  0  0  0  0  0  0  0  0
    2.3542    2.7313    2.5177 F   0  0  0  0  0  0  0  0  0  0  0  0
    3.5177    0.4081    2.2414 S   0  0  0  0  0  0  0  0  0  0  0  0
    4.2906    1.1702    0.8681 C   0  0  0  0  0  0  0  0  0  0  0  0
    5.2226    2.5528    0.9818 S   0  0  0  0  0  0  0  0  0  0  0  0
    4.2311    0.6465   -0.3883 O   0  0  0  0  0  0  0  0  0  0  0  0
    3.7372   -0.6867   -0.6125 C   0  0  0  0  0  0  0  0  0  0  0  0
    3.9630   -1.0273   -2.0730 C   0  0  0  0  0  0  0  0  0  0  0  0
  1  2  1  0
  2  3  1  0
  3  4  1  0
  4  5  1  0
  5  6  1  0
  6  7  1  0
  7  8  1  0
  8  9  1  0
  9 10  1  0
  9 11  1  0
 11 12  1  0
 12 13  2  0
 12 14  1  0
 14 15  1  0
 15 16  1  0
M  END
$$$$
