
     RDKit          3D

  7  6  0  0  0  0  0  0  0  0999 V2000
   -2.1104   -0.0995    0.1876 N   0  0  0  0  0  0  0  0  0  0  0  0
   -0.7455   -0.6080    0.0717 C   0  0  0  0  0  0  0  0  0  0  0  0
    0.2740    0.5213    0.0811 C   0  0  0  0  0  0  0  0  0  0  0  0
    1.6767   -0.0275   -0.0396 C   0  0  0  0  0  0  0  0  0  0  0  0
    1.8411   -0.7138   -1.1898 F   0  0  0  0  0  0  0  0  0  0  0  0
    2.5793    0.9785   -0.0309 F   0  0  0  0  0  0  0  0  0  0  0  0
    1.9742   -0.8522    0.9862 F   0  0  0  0  0  0  0  0  0  0  0  0
  1  2  1  0
  2  3  1  0
  3  4  1  0
  4  5  1  0
  4  6  1  0
  4  7  1  0
M  END
$$$$
