
     RDKit          3D

  8  8  0  0  0  0  0  0  0  0999 V2000
    2.4945    0.7503   -0.0716 F   0  0  0  0  0  0  0  0  0  0  0  0
    1.2418    0.2795   -0.0429 C   0  0  0  0  0  0  0  0  0  0  0  0
    0.9992   -1.0834   -0.1358 C   0  0  0  0  0  0  0  0  0  0  0  0
   -0.2426   -1.6277   -0.1134 N   0  0  0  0  0  0  0  0  0  0  0  0
   -1.2732   -0.7547    0.0078 C   0  0  0  0  0  0  0  0  0  0  0  0
   -1.1078    0.6193    0.1055 C   0  0  0  0  0  0  0  0  0  0  0  0
   -2.1703    1.4250    0.2232 F   0  0  0  0  0  0  0  0  0  0  0  0
    0.1717    1.1521    0.0803 C   0  0  0  0  0  0  0  0  0  0  0  0
  1  2  1  0
  2  3  2  0
  3  4  1  0
  4  5  2  0
  5  6  1  0
  6  7  1  0
  6  8  2  0
  8  2  1  0
M  END
$$$$
