
     RDKit          3D

 11 11  0  0  0  0  0  0  0  0999 V2000
   -1.8237   -2.1387   -0.0447 F   0  0  0  0  0  0  0  0  0  0  0  0
   -0.8809   -1.1856   -0.0279 C   0  0  0  0  0  0  0  0  0  0  0  0
    0.4080   -1.5921   -0.0754 N   0  0  0  0  0  0  0  0  0  0  0  0
    1.3423   -0.6145   -0.0574 C   0  0  0  0  0  0  0  0  0  0  0  0
    2.6268   -0.9953   -0.1037 F   0  0  0  0  0  0  0  0  0  0  0  0
    1.0476    0.7358    0.0053 C   0  0  0  0  0  0  0  0  0  0  0  0
    2.0189    1.6580    0.0202 F   0  0  0  0  0  0  0  0  0  0  0  0
   -0.2839    1.1077    0.0524 C   0  0  0  0  0  0  0  0  0  0  0  0
   -0.6163    2.4048    0.1138 F   0  0  0  0  0  0  0  0  0  0  0  0
   -1.2720    0.1399    0.0361 C   0  0  0  0  0  0  0  0  0  0  0  0
   -2.5668    0.4799    0.0810 F   0  0  0  0  0  0  0  0  0  0  0  0
  1  2  1  0
  2  3  2  0
  3  4  1  0
  4  5  1  0
  4  6  2  0
  6  7  1  0
  6  8  1  0
  8  9  1  0
  8 10  2  0
 10 11  1  0
 10  2  1  0
M  END
$$$$
