
     RDKit          3D

 14 13  0  0  0  0  0  0  0  0999 V2000
   -4.0721   -1.2906    1.1511 C   0  0  0  0  0  0  0  0  0  0  0  0
   -2.8479   -0.8923    0.3408 C   0  0  0  0  0  0  0  0  0  0  0  0
   -2.7435    0.6267    0.1993 C   0  0  0  0  0  0  0  0  0  0  0  0
   -1.5926    1.0766   -0.7052 C   0  0  0  0  0  0  0  0  0  0  0  0
   -0.2089    0.7517   -0.1365 C   0  0  0  0  0  0  0  0  0  0  0  0
    0.9021    1.3227   -1.0255 C   0  0  0  0  0  0  0  0  0  0  0  0
    2.2693    1.0230   -0.4777 C   0  0  0  0  0  0  0  0  0  0  0  0
    2.7443   -0.3680   -0.6037 C   0  0  0  0  0  0  0  0  0  0  0  0
    2.4630   -1.0814   -1.5553 O   0  0  0  0  0  0  0  0  0  0  0  0
    3.4341   -0.7528    0.4975 O   0  0  0  0  0  0  0  0  0  0  0  0
    3.8869   -2.1065    0.4582 C   0  0  0  0  0  0  0  0  0  0  0  0
    3.0805    1.9571    0.0315 C   0  0  0  0  0  0  0  0  0  0  0  0
    4.3341    1.6629    0.4363 F   0  0  0  0  0  0  0  0  0  0  0  0
    2.6540    3.2363    0.1184 F   0  0  0  0  0  0  0  0  0  0  0  0
  1  2  1  0
  2  3  1  0
  3  4  1  0
  4  5  1  0
  5  6  1  0
  6  7  1  0
  7  8  1  0
  8  9  2  0
  8 10  1  0
 10 11  1  0
  7 12  2  3
 12 13  1  0
 12 14  1  0
M  END
$$$$
