
     RDKit          3D

 28 27  0  0  0  0  0  0  0  0999 V2000
    6.4392   -0.5388   -0.2914 F   0  0  0  0  0  0  0  0  0  0  0  0
    5.1956   -0.7364    0.2140 C   0  0  0  0  0  0  0  0  0  0  0  0
    4.9503   -2.0648    0.1335 F   0  0  0  0  0  0  0  0  0  0  0  0
    5.2558   -0.4200    1.5285 F   0  0  0  0  0  0  0  0  0  0  0  0
    4.1636    0.0875   -0.5306 C   0  0  0  0  0  0  0  0  0  0  0  0
    4.4851    1.4107   -0.4623 F   0  0  0  0  0  0  0  0  0  0  0  0
    4.1776   -0.2319   -1.8558 F   0  0  0  0  0  0  0  0  0  0  0  0
    2.7936   -0.1565    0.0594 C   0  0  0  0  0  0  0  0  0  0  0  0
    2.7923    0.1623    1.3827 F   0  0  0  0  0  0  0  0  0  0  0  0
    2.4891   -1.4812   -0.0045 F   0  0  0  0  0  0  0  0  0  0  0  0
    1.7353    0.6550   -0.6675 C   0  0  0  0  0  0  0  0  0  0  0  0
    1.7291    0.3310   -1.9887 F   0  0  0  0  0  0  0  0  0  0  0  0
    2.0495    1.9775   -0.6052 F   0  0  0  0  0  0  0  0  0  0  0  0
    0.3573    0.4185   -0.0692 C   0  0  0  0  0  0  0  0  0  0  0  0
    0.0726   -0.9103   -0.1047 F   0  0  0  0  0  0  0  0  0  0  0  0
    0.3512    0.7737    1.2435 F   0  0  0  0  0  0  0  0  0  0  0  0
   -0.7102    1.1930   -0.8188 C   0  0  0  0  0  0  0  0  0  0  0  0
   -0.3204    2.4991   -0.9481 F   0  0  0  0  0  0  0  0  0  0  0  0
   -0.8092    0.7228   -2.0947 F   0  0  0  0  0  0  0  0  0  0  0  0
   -2.0784    1.1862   -0.1547 C   0  0  0  0  0  0  0  0  0  0  0  0
   -2.9354    1.9263   -0.9288 F   0  0  0  0  0  0  0  0  0  0  0  0
   -2.0259    1.8476    1.0397 F   0  0  0  0  0  0  0  0  0  0  0  0
   -2.6845   -0.1952    0.0645 C   0  0  0  0  0  0  0  0  0  0  0  0
   -2.6152   -0.9186   -1.0781 F   0  0  0  0  0  0  0  0  0  0  0  0
   -1.9668   -0.8742    0.9984 F   0  0  0  0  0  0  0  0  0  0  0  0
   -4.1320   -0.1185    0.5516 C   0  0  0  0  0  0  0  0  0  0  0  0
   -4.7414   -1.4909    0.8410 C   0  0  0  0  0  0  0  0  0  0  0  0
   -5.5451   -2.4202   -0.9096 I   0  0  0  0  0  0  0  0  0  0  0  0
  1  2  1  0
  2  3  1  0
  2  4  1  0
  2  5  1  0
  5  6  1  0
  5  7  1  0
  5  8  1  0
  8  9  1  0
  8 10  1  0
  8 11  1  0
 11 12  1  0
 11 13  1  0
 11 14  1  0
 14 15  1  0
 14 16  1  0
 14 17  1  0
 17 18  1  0
 17 19  1  0
 17 20  1  0
 20 21  1  0
 20 22  1  0
 20 23  1  0
 23 24  1  0
 23 25  1  0
 23 26  1  0
 26 27  1  0
 27 28  1  0
M  END
$$$$
