
     RDKit          3D

 34 33  0  0  0  0  0  0  0  0999 V2000
    6.5724    0.3090    1.8289 F   0  0  0  0  0  0  0  0  0  0  0  0
    6.4148    0.5637    0.5096 C   0  0  0  0  0  0  0  0  0  0  0  0
    6.6406    1.8846    0.3244 F   0  0  0  0  0  0  0  0  0  0  0  0
    7.4105   -0.0928   -0.1380 F   0  0  0  0  0  0  0  0  0  0  0  0
    5.0532    0.1288   -0.0008 C   0  0  0  0  0  0  0  0  0  0  0  0
    4.9294   -1.2207    0.1362 F   0  0  0  0  0  0  0  0  0  0  0  0
    4.9381    0.3887   -1.3323 F   0  0  0  0  0  0  0  0  0  0  0  0
    3.9634    0.8351    0.7685 C   0  0  0  0  0  0  0  0  0  0  0  0
    4.2509    2.1728    0.8366 F   0  0  0  0  0  0  0  0  0  0  0  0
    3.9609    0.4065    2.0627 F   0  0  0  0  0  0  0  0  0  0  0  0
    2.5619    0.7094    0.1831 C   0  0  0  0  0  0  0  0  0  0  0  0
    1.7322    1.4389    0.9874 F   0  0  0  0  0  0  0  0  0  0  0  0
    2.5105    1.3148   -1.0354 F   0  0  0  0  0  0  0  0  0  0  0  0
    2.0254   -0.7021    0.0720 C   0  0  0  0  0  0  0  0  0  0  0  0
    2.8551   -1.4311   -0.7330 F   0  0  0  0  0  0  0  0  0  0  0  0
    2.0771   -1.3077    1.2899 F   0  0  0  0  0  0  0  0  0  0  0  0
    0.6234   -0.8259   -0.5148 C   0  0  0  0  0  0  0  0  0  0  0  0
    0.3310   -2.1625   -0.5816 F   0  0  0  0  0  0  0  0  0  0  0  0
    0.6282   -0.3992   -1.8107 F   0  0  0  0  0  0  0  0  0  0  0  0
   -0.4746   -0.1103    0.2500 C   0  0  0  0  0  0  0  0  0  0  0  0
   -0.3325    1.2331    0.0973 F   0  0  0  0  0  0  0  0  0  0  0  0
   -0.3472   -0.3635    1.5783 F   0  0  0  0  0  0  0  0  0  0  0  0
   -1.8516   -0.5287   -0.2436 C   0  0  0  0  0  0  0  0  0  0  0  0
   -2.0328   -1.8639   -0.0602 F   0  0  0  0  0  0  0  0  0  0  0  0
   -1.9392   -0.3234   -1.5881 F   0  0  0  0  0  0  0  0  0  0  0  0
   -2.9472    0.2468    0.4651 C   0  0  0  0  0  0  0  0  0  0  0  0
   -2.7944    0.1241    1.8158 F   0  0  0  0  0  0  0  0  0  0  0  0
   -2.8210    1.5782    0.1959 F   0  0  0  0  0  0  0  0  0  0  0  0
   -4.3553   -0.2146    0.0827 C   0  0  0  0  0  0  0  0  0  0  0  0
   -4.5253   -1.5249    0.4136 F   0  0  0  0  0  0  0  0  0  0  0  0
   -5.2545    0.4738    0.8421 F   0  0  0  0  0  0  0  0  0  0  0  0
   -4.7235   -0.0410   -1.3907 C   0  0  0  0  0  0  0  0  0  0  0  0
   -6.1921   -0.3658   -1.6756 C   0  0  0  0  0  0  0  0  0  0  0  0
   -7.4621    1.3444   -1.4534 I   0  0  0  0  0  0  0  0  0  0  0  0
  1  2  1  0
  2  3  1  0
  2  4  1  0
  2  5  1  0
  5  6  1  0
  5  7  1  0
  5  8  1  0
  8  9  1  0
  8 10  1  0
  8 11  1  0
 11 12  1  0
 11 13  1  0
 11 14  1  0
 14 15  1  0
 14 16  1  0
 14 17  1  0
 17 18  1  0
 17 19  1  0
 17 20  1  0
 20 21  1  0
 20 22  1  0
 20 23  1  0
 23 24  1  0
 23 25  1  0
 23 26  1  0
 26 27  1  0
 26 28  1  0
 26 29  1  0
 29 30  1  0
 29 31  1  0
 29 32  1  0
 32 33  1  0
 33 34  1  0
M  END
$$$$
