
     RDKit          3D

 23 22  0  0  0  0  0  0  0  0999 V2000
   -1.3016   -1.6370   -1.8160 F   0  0  0  0  0  0  0  0  0  0  0  0
   -2.0028   -0.6379   -1.2453 C   0  0  0  0  0  0  0  0  0  0  0  0
   -2.6420   -0.0088   -2.2588 F   0  0  0  0  0  0  0  0  0  0  0  0
   -2.9528   -1.2196   -0.4855 F   0  0  0  0  0  0  0  0  0  0  0  0
   -1.1293    0.3122   -0.4711 C   0  0  0  0  0  0  0  0  0  0  0  0
   -0.2350    0.9173   -1.3043 F   0  0  0  0  0  0  0  0  0  0  0  0
   -2.0702    1.3344    0.1003 C   0  0  0  0  0  0  0  0  0  0  0  0
   -2.7800    1.9672   -0.8600 F   0  0  0  0  0  0  0  0  0  0  0  0
   -1.3959    2.3038    0.7631 F   0  0  0  0  0  0  0  0  0  0  0  0
   -2.9544    0.8086    0.9714 F   0  0  0  0  0  0  0  0  0  0  0  0
   -0.3801   -0.3638    0.6525 C   0  0  0  0  0  0  0  0  0  0  0  0
   -1.2640   -1.1827    1.2967 F   0  0  0  0  0  0  0  0  0  0  0  0
   -0.0043    0.5434    1.5953 F   0  0  0  0  0  0  0  0  0  0  0  0
    0.8672   -1.1730    0.2785 C   0  0  0  0  0  0  0  0  0  0  0  0
    0.7390   -1.7265   -0.9517 F   0  0  0  0  0  0  0  0  0  0  0  0
    0.8918   -2.2526    1.1408 F   0  0  0  0  0  0  0  0  0  0  0  0
    2.2436   -0.5170    0.4133 C   0  0  0  0  0  0  0  0  0  0  0  0
    2.4672   -0.1411    1.7058 F   0  0  0  0  0  0  0  0  0  0  0  0
    3.1595   -1.5289    0.1904 F   0  0  0  0  0  0  0  0  0  0  0  0
    2.5966    0.6131   -0.5478 C   0  0  0  0  0  0  0  0  0  0  0  0
    2.1051    0.3649   -1.7881 F   0  0  0  0  0  0  0  0  0  0  0  0
    3.9565    0.6505   -0.6957 F   0  0  0  0  0  0  0  0  0  0  0  0
    2.0858    2.5735    0.0472 I   0  0  0  0  0  0  0  0  0  0  0  0
  1  2  1  0
  2  3  1  0
  2  4  1  0
  2  5  1  0
  5  6  1  0
  5  7  1  0
  7  8  1  0
  7  9  1  0
  7 10  1  0
  5 11  1  0
 11 12  1  0
 11 13  1  0
 11 14  1  0
 14 15  1  0
 14 16  1  0
 14 17  1  0
 17 18  1  0
 17 19  1  0
 17 20  1  0
 20 21  1  0
 20 22  1  0
 20 23  1  0
M  END
$$$$
