
     RDKit          3D

 22 21  0  0  0  0  0  0  0  0999 V2000
    5.0986    0.2927   -0.3966 F   0  0  0  0  0  0  0  0  0  0  0  0
    3.8209    0.4688    0.0252 C   0  0  0  0  0  0  0  0  0  0  0  0
    3.8381    0.4145    1.3756 F   0  0  0  0  0  0  0  0  0  0  0  0
    3.4819    1.7277   -0.3301 F   0  0  0  0  0  0  0  0  0  0  0  0
    2.8977   -0.5714   -0.5776 C   0  0  0  0  0  0  0  0  0  0  0  0
    2.8236   -0.4033   -1.9310 F   0  0  0  0  0  0  0  0  0  0  0  0
    3.4544   -1.8152   -0.4033 F   0  0  0  0  0  0  0  0  0  0  0  0
    1.5042   -0.6001    0.0226 C   0  0  0  0  0  0  0  0  0  0  0  0
    1.5668   -0.9658    1.3333 F   0  0  0  0  0  0  0  0  0  0  0  0
    0.8210   -1.6039   -0.6025 F   0  0  0  0  0  0  0  0  0  0  0  0
    0.7266    0.6915   -0.1040 C   0  0  0  0  0  0  0  0  0  0  0  0
    1.4062    1.6780    0.5555 F   0  0  0  0  0  0  0  0  0  0  0  0
    0.6928    1.0842   -1.4060 F   0  0  0  0  0  0  0  0  0  0  0  0
   -0.6812    0.6596    0.4775 C   0  0  0  0  0  0  0  0  0  0  0  0
   -0.6220    0.4599    1.8265 F   0  0  0  0  0  0  0  0  0  0  0  0
   -1.2258    1.9109    0.3297 F   0  0  0  0  0  0  0  0  0  0  0  0
   -1.6331   -0.3534   -0.1479 C   0  0  0  0  0  0  0  0  0  0  0  0
   -1.3028   -1.6149    0.2339 F   0  0  0  0  0  0  0  0  0  0  0  0
   -1.5107   -0.3215   -1.5035 F   0  0  0  0  0  0  0  0  0  0  0  0
   -3.1085   -0.1407    0.1836 C   0  0  0  0  0  0  0  0  0  0  0  0
   -3.4166   -0.2266    1.6752 C   0  0  0  0  0  0  0  0  0  0  0  0
   -5.5331   -0.1235    2.0081 I   0  0  0  0  0  0  0  0  0  0  0  0
  1  2  1  0
  2  3  1  0
  2  4  1  0
  2  5  1  0
  5  6  1  0
  5  7  1  0
  5  8  1  0
  8  9  1  0
  8 10  1  0
  8 11  1  0
 11 12  1  0
 11 13  1  0
 11 14  1  0
 14 15  1  0
 14 16  1  0
 14 17  1  0
 17 18  1  0
 17 19  1  0
 17 20  1  0
 20 21  1  0
 21 22  1  0
M  END
$$$$
