
     RDKit          3D

 28 27  0  0  0  0  0  0  0  0999 V2000
   -4.9818   -1.5500    1.4449 C   0  0  0  0  0  0  0  0  0  0  0  0
   -4.5265   -0.9170    0.2594 O   0  0  0  0  0  0  0  0  0  0  0  0
   -2.9792   -0.2937    0.2326 Si  0  0  0  0  0  4  0  0  0  0  0  0
   -1.7052   -1.6900    0.0852 C   0  0  0  0  0  0  0  0  0  0  0  0
   -0.2831   -1.3084   -0.3624 C   0  0  0  0  0  0  0  0  0  0  0  0
    0.5168   -0.4995    0.6654 C   0  0  0  0  0  0  0  0  0  0  0  0
    0.0019    0.7518    0.7653 F   0  0  0  0  0  0  0  0  0  0  0  0
    0.3279   -1.0869    1.8859 F   0  0  0  0  0  0  0  0  0  0  0  0
    2.0248   -0.4152    0.4074 C   0  0  0  0  0  0  0  0  0  0  0  0
    2.6109    0.1875    1.4815 F   0  0  0  0  0  0  0  0  0  0  0  0
    2.5533   -1.6699    0.3475 F   0  0  0  0  0  0  0  0  0  0  0  0
    2.3810    0.3532   -0.8496 C   0  0  0  0  0  0  0  0  0  0  0  0
    1.9474    1.6407   -0.7534 F   0  0  0  0  0  0  0  0  0  0  0  0
    1.6998   -0.1755   -1.9140 F   0  0  0  0  0  0  0  0  0  0  0  0
    3.8593    0.3352   -1.2110 C   0  0  0  0  0  0  0  0  0  0  0  0
    4.2414   -0.9386   -1.5154 F   0  0  0  0  0  0  0  0  0  0  0  0
    4.0003    1.0352   -2.3800 F   0  0  0  0  0  0  0  0  0  0  0  0
    4.7834    0.9109   -0.1654 C   0  0  0  0  0  0  0  0  0  0  0  0
    4.8313    0.0947    0.9237 F   0  0  0  0  0  0  0  0  0  0  0  0
    4.3151    2.1103    0.2760 F   0  0  0  0  0  0  0  0  0  0  0  0
    6.1792    1.0672   -0.7400 C   0  0  0  0  0  0  0  0  0  0  0  0
    6.2192    1.9317   -1.7800 F   0  0  0  0  0  0  0  0  0  0  0  0
    6.6887   -0.1085   -1.1756 F   0  0  0  0  0  0  0  0  0  0  0  0
    7.0414    1.5451    0.1928 F   0  0  0  0  0  0  0  0  0  0  0  0
   -2.8408    0.7307   -1.0770 O   0  0  0  0  0  0  0  0  0  0  0  0
   -3.4845    0.3763   -2.2902 C   0  0  0  0  0  0  0  0  0  0  0  0
   -2.7375    0.5687    1.6354 O   0  0  0  0  0  0  0  0  0  0  0  0
   -3.0633    1.9487    1.6535 C   0  0  0  0  0  0  0  0  0  0  0  0
  1  2  1  0
  2  3  1  0
  3  4  1  0
  4  5  1  0
  5  6  1  0
  6  7  1  0
  6  8  1  0
  6  9  1  0
  9 10  1  0
  9 11  1  0
  9 12  1  0
 12 13  1  0
 12 14  1  0
 12 15  1  0
 15 16  1  0
 15 17  1  0
 15 18  1  0
 18 19  1  0
 18 20  1  0
 18 21  1  0
 21 22  1  0
 21 23  1  0
 21 24  1  0
  3 25  1  0
 25 26  1  0
  3 27  1  0
 27 28  1  0
M  END
$$$$
