
     RDKit          3D

 25 24  0  0  0  0  0  0  0  0999 V2000
    3.3102    2.9134   -1.6987 O   0  0  0  0  0  0  0  0  0  0  0  0
    3.2770    1.7828   -0.7305 P   0  0  0  0  0  5  0  0  0  0  0  0
    3.9171    0.4480   -1.3386 O   0  0  0  0  0  0  0  0  0  0  0  0
    4.2292    2.0347    0.5300 O   0  0  0  0  0  0  0  0  0  0  0  0
    1.6990    1.2950   -0.0655 C   0  0  0  0  0  0  0  0  0  0  0  0
    1.7762    0.1227    0.9067 C   0  0  0  0  0  0  0  0  0  0  0  0
    0.4570   -0.2788    1.5608 C   0  0  0  0  0  0  0  0  0  0  0  0
    0.7782   -0.6909    2.8314 F   0  0  0  0  0  0  0  0  0  0  0  0
   -0.3249    0.8143    1.7398 F   0  0  0  0  0  0  0  0  0  0  0  0
   -0.3374   -1.4145    0.9106 C   0  0  0  0  0  0  0  0  0  0  0  0
    0.4727   -2.5184    0.8414 F   0  0  0  0  0  0  0  0  0  0  0  0
   -1.3612   -1.7817    1.7364 F   0  0  0  0  0  0  0  0  0  0  0  0
   -0.9112   -1.1571   -0.4704 C   0  0  0  0  0  0  0  0  0  0  0  0
   -1.4883   -2.3063   -0.9355 F   0  0  0  0  0  0  0  0  0  0  0  0
    0.1246   -0.9297   -1.3360 F   0  0  0  0  0  0  0  0  0  0  0  0
   -1.9234   -0.0294   -0.6091 C   0  0  0  0  0  0  0  0  0  0  0  0
   -2.2961    0.0422   -1.9269 F   0  0  0  0  0  0  0  0  0  0  0  0
   -1.2816    1.1570   -0.3799 F   0  0  0  0  0  0  0  0  0  0  0  0
   -3.1765   -0.0791    0.2433 C   0  0  0  0  0  0  0  0  0  0  0  0
   -3.9223    1.0406   -0.0257 F   0  0  0  0  0  0  0  0  0  0  0  0
   -2.8517    0.0248    1.5611 F   0  0  0  0  0  0  0  0  0  0  0  0
   -4.0249   -1.3119   -0.0100 C   0  0  0  0  0  0  0  0  0  0  0  0
   -5.1904   -1.2587    0.6798 F   0  0  0  0  0  0  0  0  0  0  0  0
   -4.3421   -1.4545   -1.3157 F   0  0  0  0  0  0  0  0  0  0  0  0
   -3.4017   -2.4456    0.3783 F   0  0  0  0  0  0  0  0  0  0  0  0
  1  2  2  0
  2  3  1  0
  2  4  1  0
  2  5  1  0
  5  6  1  0
  6  7  1  0
  7  8  1  0
  7  9  1  0
  7 10  1  0
 10 11  1  0
 10 12  1  0
 10 13  1  0
 13 14  1  0
 13 15  1  0
 13 16  1  0
 16 17  1  0
 16 18  1  0
 16 19  1  0
 19 20  1  0
 19 21  1  0
 19 22  1  0
 22 23  1  0
 22 24  1  0
 22 25  1  0
M  END
$$$$
