
     RDKit          3D

 20 19  0  0  0  0  0  0  0  0999 V2000
   -3.4859    1.2440    0.6452 C   0  0  0  0  0  0  0  0  0  0  0  0
   -2.1445    0.7567    0.7274 O   0  0  0  0  0  0  0  0  0  0  0  0
   -2.0014   -0.5608    0.3926 C   0  0  0  0  0  0  0  0  0  0  0  0
   -2.9256   -1.2842    0.0399 O   0  0  0  0  0  0  0  0  0  0  0  0
   -0.5502   -0.9888    0.5014 C   0  0  0  0  0  0  0  0  0  0  0  0
    0.1087   -0.3219    1.4880 F   0  0  0  0  0  0  0  0  0  0  0  0
   -0.4379   -2.3081    0.8384 F   0  0  0  0  0  0  0  0  0  0  0  0
    0.1067   -0.7419   -0.8469 C   0  0  0  0  0  0  0  0  0  0  0  0
   -0.1319    0.5137   -1.3102 F   0  0  0  0  0  0  0  0  0  0  0  0
   -0.4937   -1.5772   -1.7539 F   0  0  0  0  0  0  0  0  0  0  0  0
    1.6069   -1.0164   -0.8447 C   0  0  0  0  0  0  0  0  0  0  0  0
    1.9214   -1.5856   -2.0623 F   0  0  0  0  0  0  0  0  0  0  0  0
    1.9297   -1.9692    0.0696 F   0  0  0  0  0  0  0  0  0  0  0  0
    2.5205    0.1921   -0.7125 C   0  0  0  0  0  0  0  0  0  0  0  0
    3.8204   -0.2346   -0.8184 F   0  0  0  0  0  0  0  0  0  0  0  0
    2.3341    1.0260   -1.7809 F   0  0  0  0  0  0  0  0  0  0  0  0
    2.3634    0.9731    0.5697 C   0  0  0  0  0  0  0  0  0  0  0  0
    2.5285    0.1955    1.6611 F   0  0  0  0  0  0  0  0  0  0  0  0
    3.2649    1.9803    0.6566 F   0  0  0  0  0  0  0  0  0  0  0  0
    1.1396    1.5448    0.6498 F   0  0  0  0  0  0  0  0  0  0  0  0
  1  2  1  0
  2  3  1  0
  3  4  2  0
  3  5  1  0
  5  6  1  0
  5  7  1  0
  5  8  1  0
  8  9  1  0
  8 10  1  0
  8 11  1  0
 11 12  1  0
 11 13  1  0
 11 14  1  0
 14 15  1  0
 14 16  1  0
 14 17  1  0
 17 18  1  0
 17 19  1  0
 17 20  1  0
M  END
$$$$
