
     RDKit          3D

 71 70  0  0  0  0  0  0  0  0999 V2000
   -0.3184    2.0850   -2.5839 O   0  0  0  0  0  0  0  0  0  0  0  0
    0.2558    0.9223   -1.8376 P   0  0  0  0  0  5  0  0  0  0  0  0
    1.4698    0.2521   -2.6411 O   0  0  0  0  0  0  0  0  0  0  0  0
   -0.7476   -0.3012   -1.5942 O   0  0  0  0  0  0  0  0  0  0  0  0
   -1.8748   -0.0665   -0.7702 C   0  0  0  0  0  0  0  0  0  0  0  0
   -3.1284   -0.4753   -1.5183 C   0  0  0  0  0  0  0  0  0  0  0  0
   -4.3822   -0.4887   -0.6572 C   0  0  0  0  0  0  0  0  0  0  0  0
   -4.1898   -1.3482    0.3760 F   0  0  0  0  0  0  0  0  0  0  0  0
   -5.3747   -1.0317   -1.4171 F   0  0  0  0  0  0  0  0  0  0  0  0
   -4.8334    0.8704   -0.1439 C   0  0  0  0  0  0  0  0  0  0  0  0
   -5.0450    1.7084   -1.1983 F   0  0  0  0  0  0  0  0  0  0  0  0
   -3.8053    1.4363    0.5623 F   0  0  0  0  0  0  0  0  0  0  0  0
   -6.0625    0.8304    0.7570 C   0  0  0  0  0  0  0  0  0  0  0  0
   -6.2874    2.1023    1.2197 F   0  0  0  0  0  0  0  0  0  0  0  0
   -5.7670    0.1100    1.8871 F   0  0  0  0  0  0  0  0  0  0  0  0
   -7.3682    0.3002    0.1768 C   0  0  0  0  0  0  0  0  0  0  0  0
   -8.3431    0.4026    1.1307 F   0  0  0  0  0  0  0  0  0  0  0  0
   -7.2669   -1.0276   -0.0817 F   0  0  0  0  0  0  0  0  0  0  0  0
   -7.8382    1.0255   -1.0593 C   0  0  0  0  0  0  0  0  0  0  0  0
   -7.5801    2.3620   -0.9095 F   0  0  0  0  0  0  0  0  0  0  0  0
   -7.0790    0.6340   -2.1191 F   0  0  0  0  0  0  0  0  0  0  0  0
   -9.3197    0.8827   -1.3941 C   0  0  0  0  0  0  0  0  0  0  0  0
  -10.0820    1.5171   -0.4669 F   0  0  0  0  0  0  0  0  0  0  0  0
   -9.5025    1.6314   -2.5430 F   0  0  0  0  0  0  0  0  0  0  0  0
   -9.8887   -0.5054   -1.6731 C   0  0  0  0  0  0  0  0  0  0  0  0
   -8.9632   -1.2134   -2.3845 F   0  0  0  0  0  0  0  0  0  0  0  0
  -10.9476   -0.3705   -2.5359 F   0  0  0  0  0  0  0  0  0  0  0  0
  -10.4073   -1.3524   -0.5142 C   0  0  0  0  0  0  0  0  0  0  0  0
   -9.3658   -1.7333    0.2738 F   0  0  0  0  0  0  0  0  0  0  0  0
  -10.8728   -2.5305   -1.0510 F   0  0  0  0  0  0  0  0  0  0  0  0
  -11.5017   -0.7834    0.3748 C   0  0  0  0  0  0  0  0  0  0  0  0
  -11.8701   -1.7521    1.2743 F   0  0  0  0  0  0  0  0  0  0  0  0
  -10.9997    0.2194    1.1441 F   0  0  0  0  0  0  0  0  0  0  0  0
  -12.7217   -0.3109   -0.3900 C   0  0  0  0  0  0  0  0  0  0  0  0
  -13.2279   -1.2713   -1.1883 F   0  0  0  0  0  0  0  0  0  0  0  0
  -13.7105    0.0764    0.4473 F   0  0  0  0  0  0  0  0  0  0  0  0
  -12.4405    0.7627   -1.1654 F   0  0  0  0  0  0  0  0  0  0  0  0
    0.9016    1.2937   -0.4221 O   0  0  0  0  0  0  0  0  0  0  0  0
    1.4445    0.2936    0.4148 C   0  0  0  0  0  0  0  0  0  0  0  0
    2.9578    0.2435    0.2581 C   0  0  0  0  0  0  0  0  0  0  0  0
    3.6207   -0.1878    1.5644 C   0  0  0  0  0  0  0  0  0  0  0  0
    3.3625    0.7620    2.5045 F   0  0  0  0  0  0  0  0  0  0  0  0
    3.0186   -1.3294    1.9968 F   0  0  0  0  0  0  0  0  0  0  0  0
    5.1244   -0.3954    1.4143 C   0  0  0  0  0  0  0  0  0  0  0  0
    5.6738    0.7196    0.8625 F   0  0  0  0  0  0  0  0  0  0  0  0
    5.3493   -1.3923    0.5027 F   0  0  0  0  0  0  0  0  0  0  0  0
    5.7964   -0.7434    2.7429 C   0  0  0  0  0  0  0  0  0  0  0  0
    5.5529    0.2090    3.6825 F   0  0  0  0  0  0  0  0  0  0  0  0
    5.2231   -1.8925    3.2172 F   0  0  0  0  0  0  0  0  0  0  0  0
    7.3020   -0.9767    2.5990 C   0  0  0  0  0  0  0  0  0  0  0  0
    7.5561   -1.7650    1.5240 F   0  0  0  0  0  0  0  0  0  0  0  0
    7.7391   -1.7212    3.6806 F   0  0  0  0  0  0  0  0  0  0  0  0
    8.1239    0.3125    2.6014 C   0  0  0  0  0  0  0  0  0  0  0  0
    7.5314    1.3133    1.9050 F   0  0  0  0  0  0  0  0  0  0  0  0
    8.1536    0.7666    3.8949 F   0  0  0  0  0  0  0  0  0  0  0  0
    9.5661    0.1237    2.1171 C   0  0  0  0  0  0  0  0  0  0  0  0
   10.3304    1.1598    2.6073 F   0  0  0  0  0  0  0  0  0  0  0  0
   10.1054   -1.0058    2.6468 F   0  0  0  0  0  0  0  0  0  0  0  0
    9.6815    0.1468    0.5926 C   0  0  0  0  0  0  0  0  0  0  0  0
    9.1848    1.3287    0.1270 F   0  0  0  0  0  0  0  0  0  0  0  0
    8.8993   -0.8051    0.0306 F   0  0  0  0  0  0  0  0  0  0  0  0
   11.1192   -0.0064    0.1255 C   0  0  0  0  0  0  0  0  0  0  0  0
   11.6396   -1.1718    0.5917 F   0  0  0  0  0  0  0  0  0  0  0  0
   11.8876    0.9874    0.6520 F   0  0  0  0  0  0  0  0  0  0  0  0
   11.1862    0.0279   -1.3925 C   0  0  0  0  0  0  0  0  0  0  0  0
   10.6311    1.1755   -1.8715 F   0  0  0  0  0  0  0  0  0  0  0  0
   10.4461   -0.9895   -1.9239 F   0  0  0  0  0  0  0  0  0  0  0  0
   12.6274   -0.0794   -1.8492 C   0  0  0  0  0  0  0  0  0  0  0  0
   12.7115   -0.0719   -3.2095 F   0  0  0  0  0  0  0  0  0  0  0  0
   13.2105   -1.2209   -1.4335 F   0  0  0  0  0  0  0  0  0  0  0  0
   13.3958    0.9481   -1.4079 F   0  0  0  0  0  0  0  0  0  0  0  0
  1  2  2  0
  2  3  1  0
  2  4  1  0
  4  5  1  0
  5  6  1  0
  6  7  1  0
  7  8  1  0
  7  9  1  0
  7 10  1  0
 10 11  1  0
 10 12  1  0
 10 13  1  0
 13 14  1  0
 13 15  1  0
 13 16  1  0
 16 17  1  0
 16 18  1  0
 16 19  1  0
 19 20  1  0
 19 21  1  0
 19 22  1  0
 22 23  1  0
 22 24  1  0
 22 25  1  0
 25 26  1  0
 25 27  1  0
 25 28  1  0
 28 29  1  0
 28 30  1  0
 28 31  1  0
 31 32  1  0
 31 33  1  0
 31 34  1  0
 34 35  1  0
 34 36  1  0
 34 37  1  0
  2 38  1  0
 38 39  1  0
 39 40  1  0
 40 41  1  0
 41 42  1  0
 41 43  1  0
 41 44  1  0
 44 45  1  0
 44 46  1  0
 44 47  1  0
 47 48  1  0
 47 49  1  0
 47 50  1  0
 50 51  1  0
 50 52  1  0
 50 53  1  0
 53 54  1  0
 53 55  1  0
 53 56  1  0
 56 57  1  0
 56 58  1  0
 56 59  1  0
 59 60  1  0
 59 61  1  0
 59 62  1  0
 62 63  1  0
 62 64  1  0
 62 65  1  0
 65 66  1  0
 65 67  1  0
 65 68  1  0
 68 69  1  0
 68 70  1  0
 68 71  1  0
M  END
$$$$
