
     RDKit          3D

 10  9  0  0  0  0  0  0  0  0999 V2000
    0.2510   -1.9425   -0.1150 O   0  0  0  0  0  0  0  0  0  0  0  0
    0.0930   -0.7195   -0.1738 C   0  0  0  0  0  0  0  0  0  0  0  0
    1.2092    0.2708   -0.2234 C   0  0  0  0  0  0  0  0  0  0  0  0
    2.4155   -0.2688    0.1033 F   0  0  0  0  0  0  0  0  0  0  0  0
    1.3611    0.8108   -1.4627 F   0  0  0  0  0  0  0  0  0  0  0  0
    1.0230    1.3142    0.6289 F   0  0  0  0  0  0  0  0  0  0  0  0
   -1.2384   -0.0446   -0.2043 C   0  0  0  0  0  0  0  0  0  0  0  0
   -1.5375    0.5535    0.9804 F   0  0  0  0  0  0  0  0  0  0  0  0
   -2.2643   -0.9008   -0.4641 F   0  0  0  0  0  0  0  0  0  0  0  0
   -1.3125    0.9268   -1.1532 F   0  0  0  0  0  0  0  0  0  0  0  0
  1  2  2  0
  2  3  1  0
  3  4  1  0
  3  5  1  0
  3  6  1  0
  2  7  1  0
  7  8  1  0
  7  9  1  0
  7 10  1  0
M  END
$$$$
