
     RDKit          3D

 30 28  0  0  0  0  0  0  0  0999 V2000
   -5.1704   -0.3552   -0.9026 O   0  0  0  0  0  0  0  0  0  0  0  0
   -4.0282   -0.0994   -0.0231 S   0  0  0  0  0  6  0  0  0  0  0  0
   -4.2521    0.9743    0.9432 O   0  0  0  0  0  0  0  0  0  0  0  0
   -3.4588   -1.3118    0.5642 O   0  0  0  0  0  1  0  0  0  0  0  0
   -2.7244    0.5159   -1.1174 C   0  0  0  0  0  0  0  0  0  0  0  0
   -2.2449   -0.4471   -1.9767 F   0  0  0  0  0  0  0  0  0  0  0  0
   -3.1803    1.5100   -1.9610 F   0  0  0  0  0  0  0  0  0  0  0  0
   -1.5603    1.0737   -0.3281 C   0  0  0  0  0  0  0  0  0  0  0  0
   -1.9113    2.2407    0.3036 F   0  0  0  0  0  0  0  0  0  0  0  0
   -0.6252    1.5073   -1.2484 F   0  0  0  0  0  0  0  0  0  0  0  0
   -0.8235    0.1887    0.6759 C   0  0  0  0  0  0  0  0  0  0  0  0
    0.2096    0.9404    1.1866 F   0  0  0  0  0  0  0  0  0  0  0  0
   -1.6015   -0.0468    1.7655 F   0  0  0  0  0  0  0  0  0  0  0  0
   -0.2097   -1.1238    0.1854 C   0  0  0  0  0  0  0  0  0  0  0  0
    0.1149   -1.8989    1.2676 F   0  0  0  0  0  0  0  0  0  0  0  0
   -1.1433   -1.8375   -0.4962 F   0  0  0  0  0  0  0  0  0  0  0  0
    1.0474   -1.0313   -0.6877 C   0  0  0  0  0  0  0  0  0  0  0  0
    1.0220   -2.1285   -1.5336 F   0  0  0  0  0  0  0  0  0  0  0  0
    1.0194    0.0226   -1.5319 F   0  0  0  0  0  0  0  0  0  0  0  0
    2.4068   -1.1279    0.0118 C   0  0  0  0  0  0  0  0  0  0  0  0
    3.3704   -1.2194   -0.9677 F   0  0  0  0  0  0  0  0  0  0  0  0
    2.4744   -2.3407    0.6542 F   0  0  0  0  0  0  0  0  0  0  0  0
    2.8549   -0.0660    0.9869 C   0  0  0  0  0  0  0  0  0  0  0  0
    2.0188   -0.0205    2.0548 F   0  0  0  0  0  0  0  0  0  0  0  0
    4.0672   -0.4454    1.5151 F   0  0  0  0  0  0  0  0  0  0  0  0
    3.0304    1.2907    0.3272 C   0  0  0  0  0  0  0  0  0  0  0  0
    3.4715    2.2181    1.2125 F   0  0  0  0  0  0  0  0  0  0  0  0
    1.8873    1.7673   -0.2037 F   0  0  0  0  0  0  0  0  0  0  0  0
    3.9390    1.2504   -0.6764 F   0  0  0  0  0  0  0  0  0  0  0  0
    0.0000    0.0000    0.0000 K   0  0  0  0  0 15  0  0  0  0  0  0
  1  2  2  0
  2  3  2  0
  2  4  1  0
  2  5  1  0
  5  6  1  0
  5  7  1  0
  5  8  1  0
  8  9  1  0
  8 10  1  0
  8 11  1  0
 11 12  1  0
 11 13  1  0
 11 14  1  0
 14 15  1  0
 14 16  1  0
 14 17  1  0
 17 18  1  0
 17 19  1  0
 17 20  1  0
 20 21  1  0
 20 22  1  0
 20 23  1  0
 23 24  1  0
 23 25  1  0
 23 26  1  0
 26 27  1  0
 26 28  1  0
 26 29  1  0
M  CHG  2   4  -1  30   1
M  END
$$$$
