
     RDKit          3D

 35 34  0  0  0  0  0  0  0  0999 V2000
    5.4062   -0.9731   -0.0934 O   0  0  0  0  0  0  0  0  0  0  0  0
    4.6821   -0.0464    0.7462 S   0  0  0  0  0  6  0  0  0  0  0  0
    3.9386   -0.5031    1.9017 O   0  0  0  0  0  0  0  0  0  0  0  0
    5.7628    0.9996    1.3494 O   0  0  0  0  0  0  0  0  0  0  0  0
    3.6679    1.0934   -0.2450 C   0  0  0  0  0  0  0  0  0  0  0  0
    2.9889    1.9769    0.5466 F   0  0  0  0  0  0  0  0  0  0  0  0
    4.4599    1.8882   -1.0373 F   0  0  0  0  0  0  0  0  0  0  0  0
    2.7114    0.3192   -1.1274 C   0  0  0  0  0  0  0  0  0  0  0  0
    1.9747    1.2254   -1.8524 F   0  0  0  0  0  0  0  0  0  0  0  0
    3.4333   -0.3596   -2.0739 F   0  0  0  0  0  0  0  0  0  0  0  0
    1.7382   -0.6615   -0.4845 C   0  0  0  0  0  0  0  0  0  0  0  0
    1.0258   -1.2459   -1.4937 F   0  0  0  0  0  0  0  0  0  0  0  0
    2.4141   -1.6757    0.1052 F   0  0  0  0  0  0  0  0  0  0  0  0
    0.7547   -0.0348    0.4865 C   0  0  0  0  0  0  0  0  0  0  0  0
    0.0634    0.9611   -0.1270 F   0  0  0  0  0  0  0  0  0  0  0  0
    1.4576    0.5829    1.4791 F   0  0  0  0  0  0  0  0  0  0  0  0
   -0.2157   -1.0117    1.1428 C   0  0  0  0  0  0  0  0  0  0  0  0
    0.5097   -1.9118    1.8770 F   0  0  0  0  0  0  0  0  0  0  0  0
   -0.9487   -0.3283    2.0757 F   0  0  0  0  0  0  0  0  0  0  0  0
   -1.1800   -1.7853    0.2535 C   0  0  0  0  0  0  0  0  0  0  0  0
   -1.9651   -2.5735    1.0539 F   0  0  0  0  0  0  0  0  0  0  0  0
   -0.4622   -2.6771   -0.4938 F   0  0  0  0  0  0  0  0  0  0  0  0
   -2.0871   -0.9853   -0.6733 C   0  0  0  0  0  0  0  0  0  0  0  0
   -2.8103   -1.8724   -1.4204 F   0  0  0  0  0  0  0  0  0  0  0  0
   -1.3265   -0.2993   -1.5688 F   0  0  0  0  0  0  0  0  0  0  0  0
   -3.0378   -0.0400    0.0402 C   0  0  0  0  0  0  0  0  0  0  0  0
   -2.3182    0.9209    0.6774 F   0  0  0  0  0  0  0  0  0  0  0  0
   -3.7144   -0.7067    1.0104 F   0  0  0  0  0  0  0  0  0  0  0  0
   -4.0034    0.6017   -0.9315 C   0  0  0  0  0  0  0  0  0  0  0  0
   -3.3188    1.2593   -1.9101 F   0  0  0  0  0  0  0  0  0  0  0  0
   -4.7474   -0.3463   -1.5668 F   0  0  0  0  0  0  0  0  0  0  0  0
   -4.9107    1.5645   -0.1910 C   0  0  0  0  0  0  0  0  0  0  0  0
   -5.7906    2.1594   -1.0341 F   0  0  0  0  0  0  0  0  0  0  0  0
   -4.2184    2.5577    0.4140 F   0  0  0  0  0  0  0  0  0  0  0  0
   -5.6419    0.9474    0.7656 F   0  0  0  0  0  0  0  0  0  0  0  0
  1  2  2  0
  2  3  2  0
  2  4  1  0
  2  5  1  0
  5  6  1  0
  5  7  1  0
  5  8  1  0
  8  9  1  0
  8 10  1  0
  8 11  1  0
 11 12  1  0
 11 13  1  0
 11 14  1  0
 14 15  1  0
 14 16  1  0
 14 17  1  0
 17 18  1  0
 17 19  1  0
 17 20  1  0
 20 21  1  0
 20 22  1  0
 20 23  1  0
 23 24  1  0
 23 25  1  0
 23 26  1  0
 26 27  1  0
 26 28  1  0
 26 29  1  0
 29 30  1  0
 29 31  1  0
 29 32  1  0
 32 33  1  0
 32 34  1  0
 32 35  1  0
M  END
$$$$
