
     RDKit          3D

 17 16  0  0  0  0  0  0  0  0999 V2000
    2.3625   -1.4370    1.5152 O   0  0  0  0  0  0  0  0  0  0  0  0
    2.3260   -0.2042    0.7554 S   0  0  0  0  0  6  0  0  0  0  0  0
    2.4242    1.0839    1.4067 O   0  0  0  0  0  0  0  0  0  0  0  0
    3.5985   -0.3174   -0.2442 O   0  0  0  0  0  0  0  0  0  0  0  0
    0.9816   -0.2289   -0.4750 C   0  0  0  0  0  0  0  0  0  0  0  0
    1.1083    0.7967   -1.3681 F   0  0  0  0  0  0  0  0  0  0  0  0
    1.0350   -1.3753   -1.2191 F   0  0  0  0  0  0  0  0  0  0  0  0
   -0.3252   -0.1340    0.2738 C   0  0  0  0  0  0  0  0  0  0  0  0
   -0.3761    1.0061    1.0114 F   0  0  0  0  0  0  0  0  0  0  0  0
   -0.4428   -1.1602    1.1585 F   0  0  0  0  0  0  0  0  0  0  0  0
   -1.4776   -0.1650   -0.6993 C   0  0  0  0  0  0  0  0  0  0  0  0
   -1.4442   -1.3098   -1.4392 F   0  0  0  0  0  0  0  0  0  0  0  0
   -1.3759    0.8586   -1.5933 F   0  0  0  0  0  0  0  0  0  0  0  0
   -2.7911   -0.0708    0.0523 C   0  0  0  0  0  0  0  0  0  0  0  0
   -3.8462   -0.0990   -0.7998 F   0  0  0  0  0  0  0  0  0  0  0  0
   -2.8952    1.0747    0.7641 F   0  0  0  0  0  0  0  0  0  0  0  0
   -2.9614   -1.0973    0.9171 F   0  0  0  0  0  0  0  0  0  0  0  0
  1  2  2  0
  2  3  2  0
  2  4  1  0
  2  5  1  0
  5  6  1  0
  5  7  1  0
  5  8  1  0
  8  9  1  0
  8 10  1  0
  8 11  1  0
 11 12  1  0
 11 13  1  0
 11 14  1  0
 14 15  1  0
 14 16  1  0
 14 17  1  0
M  END
$$$$
