
     RDKit          3D

  8  7  0  0  0  0  0  0  0  0999 V2000
    0.9383    0.4338   -1.7378 O   0  0  0  0  0  0  0  0  0  0  0  0
    0.6405    0.3799   -0.3198 S   0  0  0  0  0  6  0  0  0  0  0  0
    1.0757    1.4459    0.5646 O   0  0  0  0  0  0  0  0  0  0  0  0
    1.3826   -0.9435    0.2624 O   0  0  0  0  0  0  0  0  0  0  0  0
   -1.1363   -0.0703   -0.0102 C   0  0  0  0  0  0  0  0  0  0  0  0
   -1.3626   -0.3424    1.3083 F   0  0  0  0  0  0  0  0  0  0  0  0
   -1.5221   -1.1758   -0.7078 F   0  0  0  0  0  0  0  0  0  0  0  0
   -1.9892    0.9350   -0.3553 F   0  0  0  0  0  0  0  0  0  0  0  0
  1  2  2  0
  2  3  2  0
  2  4  1  0
  2  5  1  0
  5  6  1  0
  5  7  1  0
  5  8  1  0
M  END
$$$$
