
     RDKit          3D

 31 30  0  0  0  0  0  0  0  0999 V2000
    6.3012   -0.7759   -1.1910 C   0  0  0  0  0  0  0  0  0  0  0  0
    5.1760   -0.0899   -0.4380 C   0  0  0  0  0  0  0  0  0  0  0  0
    4.1614    0.3570   -1.4019 N   0  0  0  0  0  0  0  0  0  0  0  0
    2.6245    0.7466   -0.8113 S   0  0  0  0  0  6  0  0  0  0  0  0
    2.0538    1.5707   -1.8580 O   0  0  0  0  0  0  0  0  0  0  0  0
    2.8144    1.2786    0.5215 O   0  0  0  0  0  0  0  0  0  0  0  0
    1.7478   -0.8576   -0.7568 C   0  0  0  0  0  0  0  0  0  0  0  0
    1.3808   -1.2623   -2.0126 F   0  0  0  0  0  0  0  0  0  0  0  0
    2.5828   -1.8491   -0.2985 F   0  0  0  0  0  0  0  0  0  0  0  0
    0.5343   -0.7860    0.1449 C   0  0  0  0  0  0  0  0  0  0  0  0
   -0.0445   -2.0310    0.1537 F   0  0  0  0  0  0  0  0  0  0  0  0
    0.9030   -0.5691    1.4370 F   0  0  0  0  0  0  0  0  0  0  0  0
   -0.5032    0.2322   -0.2865 C   0  0  0  0  0  0  0  0  0  0  0  0
   -0.7943    0.0618   -1.6025 F   0  0  0  0  0  0  0  0  0  0  0  0
    0.0011    1.4843   -0.1663 F   0  0  0  0  0  0  0  0  0  0  0  0
   -1.7738    0.1109    0.5432 C   0  0  0  0  0  0  0  0  0  0  0  0
   -1.4918    0.2654    1.8625 F   0  0  0  0  0  0  0  0  0  0  0  0
   -2.2931   -1.1388    0.4147 F   0  0  0  0  0  0  0  0  0  0  0  0
   -2.8197    1.1251    0.1149 C   0  0  0  0  0  0  0  0  0  0  0  0
   -3.1824    0.9158   -1.1786 F   0  0  0  0  0  0  0  0  0  0  0  0
   -2.2688    2.3765    0.1295 F   0  0  0  0  0  0  0  0  0  0  0  0
   -4.0610    1.1544    0.9966 C   0  0  0  0  0  0  0  0  0  0  0  0
   -4.8887    2.1427    0.5282 F   0  0  0  0  0  0  0  0  0  0  0  0
   -3.6911    1.5796    2.2469 F   0  0  0  0  0  0  0  0  0  0  0  0
   -4.8740   -0.1156    1.1502 C   0  0  0  0  0  0  0  0  0  0  0  0
   -5.9398    0.1487    1.9723 F   0  0  0  0  0  0  0  0  0  0  0  0
   -4.1523   -1.0634    1.8106 F   0  0  0  0  0  0  0  0  0  0  0  0
   -5.3871   -0.6517   -0.1727 C   0  0  0  0  0  0  0  0  0  0  0  0
   -6.2009   -1.7200    0.0069 F   0  0  0  0  0  0  0  0  0  0  0  0
   -6.0882    0.2727   -0.8642 F   0  0  0  0  0  0  0  0  0  0  0  0
   -4.3780   -1.0689   -0.9707 F   0  0  0  0  0  0  0  0  0  0  0  0
  1  2  1  0
  2  3  1  0
  3  4  1  0
  4  5  2  0
  4  6  2  0
  4  7  1  0
  7  8  1  0
  7  9  1  0
  7 10  1  0
 10 11  1  0
 10 12  1  0
 10 13  1  0
 13 14  1  0
 13 15  1  0
 13 16  1  0
 16 17  1  0
 16 18  1  0
 16 19  1  0
 19 20  1  0
 19 21  1  0
 19 22  1  0
 22 23  1  0
 22 24  1  0
 22 25  1  0
 25 26  1  0
 25 27  1  0
 25 28  1  0
 28 29  1  0
 28 30  1  0
 28 31  1  0
M  END
$$$$
