
     RDKit          3D

 26 25  0  0  0  0  0  0  0  0999 V2000
   -3.5312    0.7448   -0.8558 O   0  0  0  0  0  0  0  0  0  0  0  0
   -3.8686    0.1256    0.4066 S   0  0  0  0  0  6  0  0  0  0  0  0
   -5.1627   -0.4987    0.5994 O   0  0  0  0  0  0  0  0  0  0  0  0
   -3.8224    1.2794    1.5424 O   0  0  0  0  0  0  0  0  0  0  0  0
   -2.5334   -0.9682    1.0093 C   0  0  0  0  0  0  0  0  0  0  0  0
   -2.8968   -2.2806    0.8165 F   0  0  0  0  0  0  0  0  0  0  0  0
   -2.3563   -0.8510    2.3616 F   0  0  0  0  0  0  0  0  0  0  0  0
   -1.2318   -0.7237    0.2765 C   0  0  0  0  0  0  0  0  0  0  0  0
   -1.3839   -0.8768   -1.0633 F   0  0  0  0  0  0  0  0  0  0  0  0
   -0.3659   -1.7234    0.6477 F   0  0  0  0  0  0  0  0  0  0  0  0
   -0.5715    0.5991    0.6093 C   0  0  0  0  0  0  0  0  0  0  0  0
   -0.2405    0.6094    1.9332 F   0  0  0  0  0  0  0  0  0  0  0  0
   -1.4546    1.6233    0.4652 F   0  0  0  0  0  0  0  0  0  0  0  0
    0.6589    0.9292   -0.2295 C   0  0  0  0  0  0  0  0  0  0  0  0
    0.2909    1.1136   -1.5285 F   0  0  0  0  0  0  0  0  0  0  0  0
    1.1244    2.1459    0.1899 F   0  0  0  0  0  0  0  0  0  0  0  0
    1.7804   -0.0896   -0.1590 C   0  0  0  0  0  0  0  0  0  0  0  0
    2.0317   -0.4067    1.1386 F   0  0  0  0  0  0  0  0  0  0  0  0
    1.3846   -1.2426   -0.7614 F   0  0  0  0  0  0  0  0  0  0  0  0
    3.0351    0.4276   -0.8275 C   0  0  0  0  0  0  0  0  0  0  0  0
    3.4727    1.5632   -0.2134 F   0  0  0  0  0  0  0  0  0  0  0  0
    2.7777    0.7751   -2.1199 F   0  0  0  0  0  0  0  0  0  0  0  0
    4.1154   -0.6349   -0.7769 C   0  0  0  0  0  0  0  0  0  0  0  0
    5.2603   -0.2014   -1.3611 F   0  0  0  0  0  0  0  0  0  0  0  0
    3.7543   -1.7681   -1.4223 F   0  0  0  0  0  0  0  0  0  0  0  0
    4.4328   -0.9823    0.4922 F   0  0  0  0  0  0  0  0  0  0  0  0
  1  2  2  0
  2  3  2  0
  2  4  1  0
  2  5  1  0
  5  6  1  0
  5  7  1  0
  5  8  1  0
  8  9  1  0
  8 10  1  0
  8 11  1  0
 11 12  1  0
 11 13  1  0
 11 14  1  0
 14 15  1  0
 14 16  1  0
 14 17  1  0
 17 18  1  0
 17 19  1  0
 17 20  1  0
 20 21  1  0
 20 22  1  0
 20 23  1  0
 23 24  1  0
 23 25  1  0
 23 26  1  0
M  END
$$$$
