
     RDKit          3D

 17 16  0  0  0  0  0  0  0  0999 V2000
   -2.8243    0.8578    0.6731 N   0  0  0  0  0  0  0  0  0  0  0  0
   -2.2795   -0.5993    0.0182 S   0  0  0  0  0  6  0  0  0  0  0  0
   -2.2538   -0.3607   -1.4081 O   0  0  0  0  0  0  0  0  0  0  0  0
   -3.1896   -1.5782    0.5780 O   0  0  0  0  0  0  0  0  0  0  0  0
   -0.5895   -0.8314    0.7176 C   0  0  0  0  0  0  0  0  0  0  0  0
   -0.5658   -0.4261    2.0235 F   0  0  0  0  0  0  0  0  0  0  0  0
   -0.2485   -2.1544    0.7341 F   0  0  0  0  0  0  0  0  0  0  0  0
    0.3953   -0.0416   -0.1104 C   0  0  0  0  0  0  0  0  0  0  0  0
    0.0131    1.2615   -0.2026 F   0  0  0  0  0  0  0  0  0  0  0  0
    0.4425   -0.5183   -1.3833 F   0  0  0  0  0  0  0  0  0  0  0  0
    1.7685   -0.1259    0.5089 C   0  0  0  0  0  0  0  0  0  0  0  0
    2.1630   -1.4253    0.6248 F   0  0  0  0  0  0  0  0  0  0  0  0
    1.7520    0.3733    1.7777 F   0  0  0  0  0  0  0  0  0  0  0  0
    2.7623    0.6468   -0.3363 C   0  0  0  0  0  0  0  0  0  0  0  0
    4.0068    0.5957    0.2016 F   0  0  0  0  0  0  0  0  0  0  0  0
    2.4375    1.9565   -0.4406 F   0  0  0  0  0  0  0  0  0  0  0  0
    2.8616    0.1573   -1.5933 F   0  0  0  0  0  0  0  0  0  0  0  0
  1  2  1  0
  2  3  2  0
  2  4  2  0
  2  5  1  0
  5  6  1  0
  5  7  1  0
  5  8  1  0
  8  9  1  0
  8 10  1  0
  8 11  1  0
 11 12  1  0
 11 13  1  0
 11 14  1  0
 14 15  1  0
 14 16  1  0
 14 17  1  0
M  END
$$$$
